# MODFLOW-USG SWBC file written by Modflow-User-Tools version       1.13
           3         118
           1
          42284    0.48769    
          42332     0.0000    
          42334    0.49678    
        -1
