# MODFLOW-USG SWF file written by Modflow-User-Tools version       1.11
#1. NSWFNDS  NJA_SWF  NSWFGWC  NSWFTYP  ISWFCB  ISWFHD  ISWFDD  ISWFIB
     4035    20413     4035        2      118      119      120        0
INTERNAL  1  (FREE)  -1  IA()
 3 4 4 4 4 4 4 4 4 4
 4 4 4 4 4 4 3 3 4 4
 4 4 4 4 4 5 5 5 5 5
 5 5 5 5 5 5 5 5 5 5
 5 5 4 4 4 4 4 4 4 4
 4 4 3 3 4 4 4 4 4 5
 5 5 5 5 5 5 5 5 5 5
 5 5 5 5 5 5 5 5 5 5
 5 5 5 5 5 5 5 5 5 5
 5 5 5 5 5 4 4 4 4 4
 4 3 3 4 4 4 4 4 5 5
 5 5 5 5 5 5 5 5 5 5
 5 5 5 5 5 5 5 5 5 5
 5 5 5 5 5 5 5 5 5 5
 5 5 5 5 5 5 5 5 5 5
 5 5 5 5 5 5 5 4 4 4
 3 3 4 4 5 5 5 5 5 5
 5 5 5 5 5 5 5 5 5 5
 5 5 5 5 6 6 6 6 6 6
 6 6 6 6 6 6 6 6 6 6
 6 6 6 6 6 5 5 5 5 5
 5 5 5 5 5 5 5 5 5 5
 5 5 5 4 4 4 3 3 4 5
 5 5 5 5 5 5 5 5 5 5
 5 5 5 5 5 6 6 6 6 6
 6 7 5 5 5 5 5 5 6 6
 5 5 6 6 5 5 6 6 5 5
 6 6 5 5 6 6 5 5 6 6
 5 5 6 6 5 5 6 6 5 5
 6 6 5 5 6 6 5 5 6 6
 5 5 6 6 5 5 6 6 5 5
 6 6 5 5 6 6 5 5 6 6
 5 5 6 6 5 5 6 6 5 5
 6 6 5 5 5 5 7 6 6 6
 6 5 5 5 5 5 5 5 5 5
 5 5 5 5 5 5 5 5 4 3
 3 4 5 5 5 5 5 5 5 5
 5 5 5 5 5 6 6 6 6 7
 5 5 5 5 5 5 6 6 5 5
 6 6 5 5 6 6 5 5 6 6
 5 5 6 6 5 5 6 6 5 6
 6 7 5 5 5 5 5 5 5 5
 5 5 5 5 5 5 5 5 5 5
 5 5 5 5 5 5 5 5 5 5
 5 5 5 5 5 5 5 5 5 5
 5 5 5 5 5 5 5 5 5 5
 5 5 5 5 5 5 5 5 5 5
 5 5 5 5 5 5 5 5 5 5
 5 5 5 5 5 5 5 5 5 5
 5 5 5 5 5 5 5 5 5 5
 5 5 5 5 5 5 5 5 5 5
 5 5 5 5 5 5 5 5 5 5
 5 5 5 5 5 5 5 5 5 5
 5 5 5 5 5 5 5 5 5 5
 5 5 5 5 5 5 5 5 5 5
 5 5 5 5 5 5 5 5 5 5
 5 5 5 5 5 5 5 5 5 5
 5 5 5 5 5 5 5 5 5 5
 5 5 5 5 5 5 5 5 5 5
 5 5 5 5 5 5 5 5 5 5
 5 5 5 5 5 5 5 5 5 5
 5 5 5 5 5 5 5 5 5 5
 5 5 5 5 5 5 5 5 5 5
 5 5 5 5 5 5 5 5 5 5
 5 5 5 5 5 5 5 5 5 5
 5 5 5 5 5 5 5 5 5 5
 5 5 5 5 5 5 5 5 5 5
 5 5 5 5 5 5 5 5 5 5
 5 5 5 5 5 5 5 5 5 5
 5 5 5 5 5 5 5 5 5 5
 5 5 5 5 5 5 5 5 5 5
 5 5 5 5 5 5 6 5 7 6
 5 5 6 6 5 5 6 6 5 5
 6 6 5 5 6 6 5 5 5 5
 7 6 6 6 5 5 5 5 5 5
 5 5 5 5 5 5 5 5 5 4
 3 3 4 5 5 5 5 5 5 5
 5 5 6 6 6 6 6 7 5 5
 5 5 5 5 6 6 5 5 6 6
 5 5 6 6 5 5 6 6 5 6
 6 7 5 5 5 5 5 5 5 5
 5 5 5 5 5 5 5 5 5 5
 5 5 5 5 5 5 5 5 5 5
 5 5 5 5 5 5 5 5 5 5
 5 5 5 5 5 5 5 5 5 5
 5 5 5 5 5 5 5 5 5 5
 5 5 5 5 5 5 5 5 5 5
 5 5 5 5 5 5 5 5 5 5
 5 5 5 5 5 5 5 5 5 5
 5 5 5 5 5 5 5 5 5 5
 5 5 5 5 5 5 5 5 5 5
 5 5 5 5 5 5 5 5 5 5
 5 5 5 5 5 5 5 5 5 5
 5 5 5 5 5 5 5 5 5 5
 5 5 5 5 5 5 5 5 5 5
 5 5 5 5 5 5 5 5 5 5
 5 5 5 5 5 5 5 5 5 5
 5 5 5 5 5 5 5 5 5 5
 5 5 5 5 5 5 5 5 5 5
 5 5 5 5 5 5 5 5 5 5
 5 5 5 5 5 5 5 5 5 5
 5 5 5 5 5 5 5 5 5 5
 5 5 5 5 5 5 5 5 5 5
 5 5 5 5 5 5 5 5 5 5
 5 5 5 5 5 5 5 5 5 5
 5 5 5 5 5 5 5 5 5 5
 5 5 5 5 5 5 5 5 5 5
 5 5 5 5 5 5 5 5 5 5
 5 5 5 5 5 5 5 5 5 5
 5 5 5 5 5 5 5 5 5 5
 5 5 5 5 5 5 5 5 5 5
 5 5 5 5 5 5 5 5 5 5
 5 5 5 5 5 5 5 5 5 5
 5 5 5 5 5 5 5 5 5 5
 5 5 5 5 5 5 5 5 5 5
 5 5 5 5 5 5 5 5 5 5
 5 5 5 5 5 5 5 5 5 5
 5 5 5 5 5 5 5 5 5 5
 5 5 5 5 5 5 5 5 5 5
 5 5 5 5 5 5 5 5 5 5
 5 5 5 5 5 5 5 5 5 5
 5 5 5 5 5 5 5 5 5 5
 5 5 5 5 5 5 5 5 5 5
 5 5 5 5 5 5 5 5 5 5
 5 5 5 5 5 5 5 5 5 5
 5 5 5 5 5 5 5 5 5 5
 5 5 5 5 5 5 5 5 5 5
 5 5 5 5 5 5 5 5 5 5
 5 5 5 5 5 5 5 5 5 5
 5 5 5 5 5 5 5 5 6 5
 7 6 5 5 6 6 5 5 6 6
 5 5 6 6 5 5 5 5 7 6
 6 5 5 5 5 5 5 5 5 5
 5 5 5 5 5 4 4 2 3 5
 5 5 5 5 5 6 6 6 6 7
 5 5 5 5 5 5 6 6 5 5
 6 6 5 5 6 6 5 5 6 6
 5 5 6 6 5 6 6 7 5 5
 5 5 5 5 5 5 5 5 5 5
 5 5 5 5 5 5 5 5 5 5
 5 5 5 5 5 5 5 5 5 5
 5 5 5 5 5 5 5 5 5 5
 5 5 5 5 5 5 5 5 5 5
 5 5 5 5 5 5 5 5 5 5
 5 5 5 5 5 5 5 5 5 5
 5 5 5 5 5 5 5 5 5 5
 5 5 5 5 5 5 5 5 5 5
 5 5 5 5 5 5 5 5 5 5
 5 5 5 5 5 5 5 5 5 5
 5 5 5 5 5 5 5 5 5 5
 5 5 5 5 5 5 5 5 5 5
 5 5 5 5 5 5 5 5 5 5
 5 5 5 5 5 5 5 5 5 5
 5 5 5 5 5 5 5 5 5 5
 5 5 5 5 5 5 5 5 5 5
 5 5 5 5 5 5 5 5 5 5
 5 5 5 5 5 5 5 5 5 5
 5 5 5 5 5 5 5 5 5 5
 5 5 5 5 5 5 5 5 5 5
 5 5 5 5 5 5 5 5 5 5
 5 5 5 5 5 5 5 5 5 5
 5 5 5 5 5 5 5 5 5 5
 5 5 5 5 5 5 5 5 5 5
 5 5 5 5 5 5 5 5 5 5
 5 5 5 5 5 5 5 5 5 5
 5 5 5 5 5 5 5 5 5 5
 5 5 5 5 5 5 5 5 5 5
 5 5 5 5 5 5 5 5 5 5
 5 5 5 5 5 5 5 5 5 5
 5 5 5 5 5 5 5 5 5 5
 5 5 5 5 5 5 5 5 5 5
 5 5 5 5 5 5 5 5 5 5
 5 5 5 5 5 5 5 5 5 5
 5 5 5 5 5 5 5 5 5 5
 5 5 5 5 5 5 5 5 5 5
 5 5 5 5 5 5 5 5 5 5
 5 5 5 5 5 5 5 5 5 5
 5 5 5 5 5 5 5 5 5 5
 5 5 5 5 5 5 5 5 5 5
 5 5 5 5 7 6 6 5 6 6
 5 5 6 7 5 6 5 5 5 5
 5 5 5 5 5 5 5 5 5 5
 5 5 5 5 5 5 5 5 5 5
 5 5 5 5 5 5 5 5 5 5
 5 5 5 5 5 5 5 5 5 5
 5 5 5 5 5 5 5 5 5 5
 5 5 5 5 5 5 5 5 5 5
 5 5 5 5 5 5 5 5 5 5
 5 5 5 5 5 5 5 5 5 5
 5 5 5 5 5 5 5 5 5 5
 5 5 5 5 5 5 5 5 5 5
 5 5 5 5 5 5 5 5 5 5
 5 5 5 5 5 5 5 5 5 5
 5 5 5 5 5 5 5 5 5 5
 5 5 5 5 5 5 5 5 5 5
 5 5 5 5 5 5 5 5 5 5
 5 5 5 5 5 5 5 5 5 5
 5 5 5 5 5 5 5 5 5 5
 5 5 6 5 7 6 5 5 6 6
 5 5 6 6 5 5 5 5 7 6
 5 5 5 5 5 5 5 5 5 5
 5 5 4 3 4 5 5 5 5 5
 7 5 5 5 5 5 5 6 6 5
 5 6 6 5 5 6 6 5 5 6
 6 5 6 6 7 5 5 5 5 5
 5 5 5 5 5 5 5 5 5 5
 5 5 5 5 5 5 5 5 5 5
 5 5 5 5 5 5 5 5 5 5
 5 5 5 5 5 5 5 5 5 5
 5 5 5 5 5 5 5 5 5 5
 5 5 5 5 5 5 5 5 5 5
 5 5 5 5 5 5 5 5 5 5
 5 5 5 5 5 5 5 5 5 5
 5 5 5 5 5 5 5 5 5 5
 5 5 5 5 5 5 5 5 5 5
 5 5 5 5 5 5 5 5 5 5
 5 5 5 5 5 5 5 5 5 5
 5 5 5 5 5 5 5 5 5 5
 5 5 5 5 5 5 5 5 5 5
 5 5 5 5 5 5 5 5 5 5
 5 5 5 5 5 5 5 5 5 5
 5 5 5 5 5 5 5 5 5 5
 5 5 5 5 5 5 5 5 5 5
 5 5 5 5 5 5 5 5 5 5
 5 5 5 5 5 5 5 5 5 5
 5 5 5 5 5 5 5 5 5 5
 5 5 5 5 5 5 5 5 5 5
 5 5 5 5 5 5 5 5 5 5
 5 5 5 5 5 5 5 5 5 5
 5 5 5 5 5 5 5 5 5 5
 5 5 5 5 5 5 5 5 5 5
 5 5 5 5 5 5 5 5 5 5
 5 5 5 5 5 5 5 5 5 5
 5 5 5 7 6 6 5 6 6 5
 5 6 6 5 5 6 6 5 5 6
 6 5 5 6 6 5 5 6 6 5
 5 6 6 5 5 6 6 5 5 6
 6 5 5 6 6 5 5 6 6 5
 5 6 6 5 5 6 6 5 5 5
 5 5 5 8 5 5 5 5 6 6
 5 5 6 6 5 5 6 6 5 5
 6 6 5 5 6 7 5 6 5 5
 5 5 5 5 5 5 5 5 5 5
 5 5 5 5 5 5 5 5 5 5
 5 5 5 5 5 5 5 5 5 5
 5 5 5 5 5 5 5 5 5 5
 5 5 5 5 5 5 5 5 5 5
 5 5 5 5 5 5 5 5 5 5
 5 5 5 5 5 5 5 5 5 5
 5 5 5 5 5 5 5 5 5 5
 5 5 5 5 5 5 5 5 5 5
 5 5 5 5 5 5 5 5 5 5
 5 5 5 5 5 5 5 5 5 5
 5 5 5 5 5 5 5 5 5 5
 5 5 5 5 5 5 5 5 5 5
 5 5 5 5 5 5 5 5 5 5
 5 5 6 5 7 6 5 5 6 6
 5 5 5 5 7 6 6 5 5 5
 5 5 5 5 5 3 4 5 5 5
 5 6 5 5 5 5 5 6 6 7
 5 5 5 5 5 5 5 5 5 5
 5 5 5 5 5 5 5 5 5 5
 5 5 5 5 5 5 5 5 5 5
 5 5 5 5 5 5 5 5 5 5
 5 5 5 5 5 5 5 5 5 5
 5 5 5 5 5 5 5 5 5 5
 5 5 5 5 5 5 5 5 5 5
 5 5 5 5 5 5 5 5 5 5
 5 5 5 5 5 5 5 5 5 5
 5 5 5 5 5 5 5 5 5 5
 5 5 5 5 5 5 5 5 5 5
 5 5 5 5 5 5 5 5 5 5
 5 5 5 5 5 5 5 5 5 5
 5 5 5 5 5 5 5 5 5 5
 5 5 5 5 5 5 5 5 5 5
 5 5 5 5 5 5 5 5 5 5
 5 5 5 5 5 5 5 5 5 5
 5 5 5 5 5 5 5 5 5 5
 5 5 5 5 5 5 5 5 5 5
 5 5 5 5 5 5 5 5 5 5
 5 5 5 5 5 5 5 5 5 5
 5 5 5 5 5 5 5 5 5 5
 5 5 5 5 5 5 5 5 5 5
 5 5 5 5 5 5 5 5 5 5
 5 5 5 5 5 5 5 5 5 5
 5 5 5 5 5 5 5 5 5 5
 5 5 5 5 5 5 5 5 5 5
 5 5 7 6 6 5 6 6 5 5
 6 6 5 5 6 6 5 5 6 6
 5 5 6 6 5 5 5 5 5 5
 7 6 6 6 6 6 6 6 6 6
 6 6 6 6 5 6 6 6 6 7
 5 5 5 5 6 6 5 5 6 6
 5 5 6 6 5 5 6 7 5 6
 5 5 5 5 5 5 5 5 5 5
 5 5 5 5 5 5 5 5 5 5
 5 5 5 5 5 5 5 5 5 5
 5 5 5 5 5 5 5 5 5 5
 5 5 5 5 5 5 5 5 5 5
 5 5 5 5 5 5 5 5 5 5
 5 5 5 5 5 5 5 5 5 5
 5 5 5 5 5 5 5 5 5 5
 5 5 5 5 5 5 5 5 5 5
 5 5 5 5 5 5 5 5 5 5
 5 5 5 5 5 5 5 5 5 5
 5 5 6 5 7 6 5 5 6 6
 5 5 6 6 5 5 5 5 7 6
 5 5 5 5 4 3 4 5 5 5
 5 6 5 6 5 6 5 5 5 5
 5 5 5 5 5 5 5 5 5 5
 5 5 5 5 5 5 5 5 5 5
 5 5 5 5 5 5 5 5 5 5
 5 5 5 5 5 5 5 5 5 5
 5 5 5 5 5 5 5 5 5 5
 5 5 5 5 5 5 5 5 5 5
 5 5 5 5 5 5 5 5 5 5
 5 5 5 5 5 5 5 5 5 5
 5 5 5 5 5 5 5 5 5 5
 5 5 7 6 6 5 6 6 5 5
 6 6 5 5 6 6 5 5 6 6
 5 5 6 6 5 5 6 6 5 5
 6 6 5 5 6 6 5 5 6 6
 5 5 6 6 5 5 6 6 5 5
 5 5 5 5 7 6 6 6 6 6
 5 5 5 5 5 5 5 5 5 5
 5 5 5 5 5 5 5 5 5 5
 6 6 6 7 5 5 5 5 6 6
 5 5 6 6 5 5 6 7 5 6
 5 5 5 5 5 5 5 5 5 5
 5 5 5 5 5 5 5 5 5 5
 5 5 5 5 5 5 5 5 5 5
 5 5 5 5 5 5 5 5 5 5
 5 5 5 5 5 5 5 5 5 5
 5 5 5 5 5 5 5 5 5 5
 5 5 5 5 5 5 5 5 5 5
 5 5 5 5 5 5 5 5 5 5
 5 5 5 5 5 5 5 5 5 5
 5 5 5 5 5 5 5 5 5 5
 5 5 5 5 5 5 5 5 5 5
 5 5 6 5 7 6 5 5 6 6
 5 5 5 5 7 6 5 3 3 5
 5 5 5 6 5 5 5 5 6 6
 5 5 6 6 5 5 6 6 5 5
 6 6 5 5 6 6 5 5 6 6
 5 5 5 5 5 5 7 6 6 6
 6 6 6 6 6 6 6 6 5 5
 5 5 5 5 5 5 5 5 5 5
 5 5 5 5 5 5 5 5 5 5
 5 5 5 5 5 5 5 5 6 6
 7 5 5 5 5 6 6 5 5 6
 7 5 6 5 5 5 5 5 5 5
 5 5 5 5 5 5 5 5 5 5
 5 5 5 5 5 5 5 5 5 5
 5 5 5 5 5 5 5 5 5 5
 5 5 5 5 5 5 5 5 5 5
 5 5 5 5 5 5 5 5 5 5
 5 5 5 5 5 5 5 5 5 5
 5 5 5 5 5 5 5 5 5 5
 5 5 5 5 5 5 5 5 5 5
 5 5 5 5 5 5 5 5 5 5
 5 5 5 5 5 5 5 5 5 5
 5 5 5 5 5 6 5 7 6 5
 5 6 6 5 5 4 4 4 3 5
 5 5 5 6 6 6 6 6 6 6
 6 5 5 5 5 5 5 5 5 5
 5 5 5 5 5 5 5 5 5 5
 5 5 5 5 5 5 5 5 5 5
 5 5 5 5 5 5 5 5 5 5
 5 5 5 5 5 5 6 7 5 5
 5 5 6 6 5 5 6 6 5 5
 6 7 5 6 5 5 5 5 5 5
 5 5 5 5 5 5 5 5 5 5
 5 5 5 5 5 5 5 5 5 5
 5 5 5 5 5 5 5 5 5 5
 5 5 5 5 5 5 5 5 5 5
 5 5 5 5 5 5 5 5 5 5
 5 5 5 5 5 5 5 5 5 5
 5 5 5 5 5 5 5 5 5 5
 4 4 4 4 5 5 5 4 5 5
 5 4 5 5 5 4 4 4 4 3
 3 4 5 5 5 5 5 5 5 5
 5 5 5 5 5 5 5 5 5 5
 5 5 5 5 5 5 5 5 5 5
 5 5 5 5 5 5 5 5 5 5
 5 5 5 5 5 5 5 5 5 5
 5 5 5 5 5 5 5 5 5 6
 6 7 5 5 5 5 6 6 5 5
 6 7 5 6 5 5 5 5 5 5
 5 5 5 5 5 5 5 5 5 5
 5 5 5 4 5 5 5 4 5 5
 5 4 4 4 4 3 3 4 4 5
 5 5 5 5 5 5 5 5 5 5
 5 5 5 5 5 5 5 5 5 5
 5 5 5 5 5 5 5 5 5 5
 5 5 5 5 5 5 5 5 5 5
 5 5 5 5 5 5 5 5 5 5
 5 5 5 5 5 5 6 7 5 5
 4 4 6 5 4 3 3 4 4 4
 4 4 4 4 4 4 4 4 4 4
 4 4 4 4 4 4 4 4 4 4
 4 4 4 4 4 4 4 4 4 4
 4 4 4 4 4 4 4 4 4 4
 4 4 4 4 4 4 4 4 4 4
 4 4 4 4 3
INTERNAL  1  (FREE)  -1  JA()
 1 2 26
 2 1 3 27
 3 2 4 28
 4 3 5 29
 5 4 6 30
 6 5 7 31
 7 6 8 32
 8 7 9 33
 9 8 10 34
 10 9 11 35
 11 10 12 36
 12 11 13 37
 13 12 14 38
 14 13 15 39
 15 14 16 40
 16 15 17 41
 17 16 42
 18 19 60
 19 18 20 61
 20 19 21 62
 21 20 22 63
 22 21 23 64
 23 22 24 65
 24 23 25 66
 25 24 26 67
 26 1 25 27 68
 27 2 26 28 69
 28 3 27 29 70
 29 4 28 30 71
 30 5 29 31 72
 31 6 30 32 73
 32 7 31 33 74
 33 8 32 34 75
 34 9 33 35 76
 35 10 34 36 77
 36 11 35 37 78
 37 12 36 38 79
 38 13 37 39 80
 39 14 38 40 81
 40 15 39 41 82
 41 16 40 42 83
 42 17 41 43 84
 43 42 44 85
 44 43 45 86
 45 44 46 87
 46 45 47 88
 47 46 48 89
 48 47 49 90
 49 48 50 91
 50 49 51 92
 51 50 52 93
 52 51 53 94
 53 52 95
 54 55 109
 55 54 56 110
 56 55 57 111
 57 56 58 112
 58 57 59 113
 59 58 60 114
 60 18 59 61 115
 61 19 60 62 116
 62 20 61 63 117
 63 21 62 64 118
 64 22 63 65 119
 65 23 64 66 120
 66 24 65 67 121
 67 25 66 68 122
 68 26 67 69 123
 69 27 68 70 124
 70 28 69 71 125
 71 29 70 72 126
 72 30 71 73 127
 73 31 72 74 128
 74 32 73 75 129
 75 33 74 76 130
 76 34 75 77 131
 77 35 76 78 132
 78 36 77 79 133
 79 37 78 80 134
 80 38 79 81 135
 81 39 80 82 136
 82 40 81 83 137
 83 41 82 84 138
 84 42 83 85 139
 85 43 84 86 140
 86 44 85 87 141
 87 45 86 88 142
 88 46 87 89 143
 89 47 88 90 144
 90 48 89 91 145
 91 49 90 92 146
 92 50 91 93 147
 93 51 92 94 148
 94 52 93 95 149
 95 53 94 96 150
 96 95 97 151
 97 96 98 152
 98 97 99 153
 99 98 100 154
 100 99 101 155
 101 100 102 156
 102 101 157
 103 104 165
 104 103 105 166
 105 104 106 167
 106 105 107 168
 107 106 108 169
 108 107 109 170
 109 54 108 110 171
 110 55 109 111 172
 111 56 110 112 173
 112 57 111 113 174
 113 58 112 114 175
 114 59 113 115 176
 115 60 114 116 177
 116 61 115 117 178
 117 62 116 118 179
 118 63 117 119 180
 119 64 118 120 181
 120 65 119 121 182
 121 66 120 122 183
 122 67 121 123 184
 123 68 122 124 185
 124 69 123 125 186
 125 70 124 126 187
 126 71 125 127 188
 127 72 126 128 189
 128 73 127 129 190
 129 74 128 130 191
 130 75 129 131 192
 131 76 130 132 193
 132 77 131 133 194
 133 78 132 134 195
 134 79 133 135 196
 135 80 134 136 197
 136 81 135 137 198
 137 82 136 138 199
 138 83 137 139 200
 139 84 138 140 201
 140 85 139 141 202
 141 86 140 142 203
 142 87 141 143 204
 143 88 142 144 205
 144 89 143 145 206
 145 90 144 146 207
 146 91 145 147 208
 147 92 146 148 209
 148 93 147 149 210
 149 94 148 150 211
 150 95 149 151 212
 151 96 150 152 213
 152 97 151 153 214
 153 98 152 154 215
 154 99 153 155 216
 155 100 154 156 217
 156 101 155 157 218
 157 102 156 158 219
 158 157 159 220
 159 158 160 221
 160 159 161 222
 161 160 223
 162 163 230
 163 162 164 231
 164 163 165 232
 165 103 164 166 233
 166 104 165 167 234
 167 105 166 168 235
 168 106 167 169 236
 169 107 168 170 237
 170 108 169 171 238
 171 109 170 172 239
 172 110 171 173 240
 173 111 172 174 241
 174 112 173 175 242
 175 113 174 176 243
 176 114 175 177 244
 177 115 176 178 245
 178 116 177 179 246
 179 117 178 180 247
 180 118 179 181 248
 181 119 180 182 249
 182 120 181 183 250
 183 121 182 184 251
 184 122 183 185 252
 185 123 184 186 253 254
 186 124 185 187 257 258
 187 125 186 188 261 262
 188 126 187 189 265 266
 189 127 188 190 269 270
 190 128 189 191 273 274
 191 129 190 192 277 278
 192 130 191 193 281 282
 193 131 192 194 285 286
 194 132 193 195 289 290
 195 133 194 196 293 294
 196 134 195 197 297 298
 197 135 196 198 301 302
 198 136 197 199 305 306
 199 137 198 200 309 310
 200 138 199 201 313 314
 201 139 200 202 317 318
 202 140 201 203 321 322
 203 141 202 204 325 326
 204 142 203 205 329 330
 205 143 204 206 333 334
 206 144 205 207 337
 207 145 206 208 338
 208 146 207 209 339
 209 147 208 210 340
 210 148 209 211 341
 211 149 210 212 342
 212 150 211 213 343
 213 151 212 214 344
 214 152 213 215 345
 215 153 214 216 346
 216 154 215 217 347
 217 155 216 218 348
 218 156 217 219 349
 219 157 218 220 350
 220 158 219 221 351
 221 159 220 222 352
 222 160 221 223 353
 223 161 222 224 354
 224 223 225 355
 225 224 226 356
 226 225 227 357
 227 226 358
 228 229 363
 229 228 230 364
 230 162 229 231 365
 231 163 230 232 366
 232 164 231 233 367
 233 165 232 234 368
 234 166 233 235 369
 235 167 234 236 370
 236 168 235 237 371
 237 169 236 238 372
 238 170 237 239 373
 239 171 238 240 374
 240 172 239 241 375
 241 173 240 242 376
 242 174 241 243 377
 243 175 242 244 378
 244 176 243 245 379
 245 177 244 246 380
 246 178 245 247 381 382
 247 179 246 248 385 386
 248 180 247 249 389 390
 249 181 248 250 393 394
 250 182 249 251 397 398
 251 183 250 252 401 402
 252 184 251 253 255 405 406
 253 185 252 254 255
 254 185 253 257 256
 255 253 252 256 409
 256 254 255 259 410
 257 186 254 258 259
 258 186 257 261 260
 259 257 256 260 413 414
 260 258 259 263 415 416
 261 187 258 262 263
 262 187 261 265 264
 263 261 260 264 429 430
 264 262 263 267 431 432
 265 188 262 266 267
 266 188 265 269 268
 267 265 264 268 445 446
 268 266 267 271 447 448
 269 189 266 270 271
 270 189 269 273 272
 271 269 268 272 461 462
 272 270 271 275 463 464
 273 190 270 274 275
 274 190 273 277 276
 275 273 272 276 477 478
 276 274 275 279 479 480
 277 191 274 278 279
 278 191 277 281 280
 279 277 276 280 493 494
 280 278 279 283 495 496
 281 192 278 282 283
 282 192 281 285 284
 283 281 280 284 509 510
 284 282 283 287 511 512
 285 193 282 286 287
 286 193 285 289 288
 287 285 284 288 525 526
 288 286 287 291 527 528
 289 194 286 290 291
 290 194 289 293 292
 291 289 288 292 541 542
 292 290 291 295 543 544
 293 195 290 294 295
 294 195 293 297 296
 295 293 292 296 557 558
 296 294 295 299 559 560
 297 196 294 298 299
 298 196 297 301 300
 299 297 296 300 573 574
 300 298 299 303 575 576
 301 197 298 302 303
 302 197 301 305 304
 303 301 300 304 589 590
 304 302 303 307 591 592
 305 198 302 306 307
 306 198 305 309 308
 307 305 304 308 605 606
 308 306 307 311 607 608
 309 199 306 310 311
 310 199 309 313 312
 311 309 308 312 621 622
 312 310 311 315 623 624
 313 200 310 314 315
 314 200 313 317 316
 315 313 312 316 637 638
 316 314 315 319 639 640
 317 201 314 318 319
 318 201 317 321 320
 319 317 316 320 653 654
 320 318 319 323 655 656
 321 202 318 322 323
 322 202 321 325 324
 323 321 320 324 669 670
 324 322 323 327 671 672
 325 203 322 326 327
 326 203 325 329 328
 327 325 324 328 685 686
 328 326 327 331 687 688
 329 204 326 330 331
 330 204 329 333 332
 331 329 328 332 701 702
 332 330 331 335 703 704
 333 205 330 334 335
 334 205 333 337 336
 335 333 332 336 717
 336 334 335 337 718
 337 206 334 336 338 721 722
 338 207 337 339 725 726
 339 208 338 340 729 730
 340 209 339 341 733 734
 341 210 340 342 737 738
 342 211 341 343 741
 343 212 342 344 742
 344 213 343 345 743
 345 214 344 346 744
 346 215 345 347 745
 347 216 346 348 746
 348 217 347 349 747
 349 218 348 350 748
 350 219 349 351 749
 351 220 350 352 750
 352 221 351 353 751
 353 222 352 354 752
 354 223 353 355 753
 355 224 354 356 754
 356 225 355 357 755
 357 226 356 358 756
 358 227 357 359 757
 359 358 360 758
 360 359 759
 361 362 764
 362 361 363 765
 363 228 362 364 766
 364 229 363 365 767
 365 230 364 366 768
 366 231 365 367 769
 367 232 366 368 770
 368 233 367 369 771
 369 234 368 370 772
 370 235 369 371 773
 371 236 370 372 774
 372 237 371 373 775
 373 238 372 374 776
 374 239 373 375 777
 375 240 374 376 778
 376 241 375 377 779 780
 377 242 376 378 783 784
 378 243 377 379 787 788
 379 244 378 380 791 792
 380 245 379 381 383 795 796
 381 246 380 382 383
 382 246 381 385 384
 383 381 380 384 799
 384 382 383 387 800
 385 247 382 386 387
 386 247 385 389 388
 387 385 384 388 803 804
 388 386 387 391 805 806
 389 248 386 390 391
 390 248 389 393 392
 391 389 388 392 819 820
 392 390 391 395 821 822
 393 249 390 394 395
 394 249 393 397 396
 395 393 392 396 835 836
 396 394 395 399 837 838
 397 250 394 398 399
 398 250 397 401 400
 399 397 396 400 851 852
 400 398 399 403 853 854
 401 251 398 402 403
 402 251 401 405 404
 403 401 400 404 867 868
 404 402 403 407 869 870
 405 252 402 406 407
 406 252 405 409 408
 407 405 404 408 883 884
 408 406 407 411 885 886
 409 255 406 410 411
 410 256 409 413 417 412
 411 409 408 412 899 900
 412 410 411 421 425 901 902
 413 259 410 414 417
 414 259 413 415 418
 415 260 414 416 419
 416 260 415 429 420
 417 413 410 418 421
 418 414 417 419 422
 419 415 418 420 423
 420 416 419 433 424
 421 417 412 422 425
 422 418 421 423 426
 423 419 422 424 427
 424 420 423 437 428
 425 421 412 426 915
 426 422 425 427 916
 427 423 426 428 917
 428 424 427 441 918
 429 263 416 430 433
 430 263 429 431 434
 431 264 430 432 435
 432 264 431 445 436
 433 429 420 434 437
 434 430 433 435 438
 435 431 434 436 439
 436 432 435 449 440
 437 433 424 438 441
 438 434 437 439 442
 439 435 438 440 443
 440 436 439 453 444
 441 437 428 442 931
 442 438 441 443 932
 443 439 442 444 933
 444 440 443 457 934
 445 267 432 446 449
 446 267 445 447 450
 447 268 446 448 451
 448 268 447 461 452
 449 445 436 450 453
 450 446 449 451 454
 451 447 450 452 455
 452 448 451 465 456
 453 449 440 454 457
 454 450 453 455 458
 455 451 454 456 459
 456 452 455 469 460
 457 453 444 458 947
 458 454 457 459 948
 459 455 458 460 949
 460 456 459 473 950
 461 271 448 462 465
 462 271 461 463 466
 463 272 462 464 467
 464 272 463 477 468
 465 461 452 466 469
 466 462 465 467 470
 467 463 466 468 471
 468 464 467 481 472
 469 465 456 470 473
 470 466 469 471 474
 471 467 470 472 475
 472 468 471 485 476
 473 469 460 474 963
 474 470 473 475 964
 475 471 474 476 965
 476 472 475 489 966
 477 275 464 478 481
 478 275 477 479 482
 479 276 478 480 483
 480 276 479 493 484
 481 477 468 482 485
 482 478 481 483 486
 483 479 482 484 487
 484 480 483 497 488
 485 481 472 486 489
 486 482 485 487 490
 487 483 486 488 491
 488 484 487 501 492
 489 485 476 490 979
 490 486 489 491 980
 491 487 490 492 981
 492 488 491 505 982
 493 279 480 494 497
 494 279 493 495 498
 495 280 494 496 499
 496 280 495 509 500
 497 493 484 498 501
 498 494 497 499 502
 499 495 498 500 503
 500 496 499 513 504
 501 497 488 502 505
 502 498 501 503 506
 503 499 502 504 507
 504 500 503 517 508
 505 501 492 506 995
 506 502 505 507 996
 507 503 506 508 997
 508 504 507 521 998
 509 283 496 510 513
 510 283 509 511 514
 511 284 510 512 515
 512 284 511 525 516
 513 509 500 514 517
 514 510 513 515 518
 515 511 514 516 519
 516 512 515 529 520
 517 513 504 518 521
 518 514 517 519 522
 519 515 518 520 523
 520 516 519 533 524
 521 517 508 522 1011
 522 518 521 523 1012
 523 519 522 524 1013
 524 520 523 537 1014
 525 287 512 526 529
 526 287 525 527 530
 527 288 526 528 531
 528 288 527 541 532
 529 525 516 530 533
 530 526 529 531 534
 531 527 530 532 535
 532 528 531 545 536
 533 529 520 534 537
 534 530 533 535 538
 535 531 534 536 539
 536 532 535 549 540
 537 533 524 538 1027
 538 534 537 539 1028
 539 535 538 540 1029
 540 536 539 553 1030
 541 291 528 542 545
 542 291 541 543 546
 543 292 542 544 547
 544 292 543 557 548
 545 541 532 546 549
 546 542 545 547 550
 547 543 546 548 551
 548 544 547 561 552
 549 545 536 550 553
 550 546 549 551 554
 551 547 550 552 555
 552 548 551 565 556
 553 549 540 554 1043
 554 550 553 555 1044
 555 551 554 556 1045
 556 552 555 569 1046
 557 295 544 558 561
 558 295 557 559 562
 559 296 558 560 563
 560 296 559 573 564
 561 557 548 562 565
 562 558 561 563 566
 563 559 562 564 567
 564 560 563 577 568
 565 561 552 566 569
 566 562 565 567 570
 567 563 566 568 571
 568 564 567 581 572
 569 565 556 570 1059
 570 566 569 571 1060
 571 567 570 572 1061
 572 568 571 585 1062
 573 299 560 574 577
 574 299 573 575 578
 575 300 574 576 579
 576 300 575 589 580
 577 573 564 578 581
 578 574 577 579 582
 579 575 578 580 583
 580 576 579 593 584
 581 577 568 582 585
 582 578 581 583 586
 583 579 582 584 587
 584 580 583 597 588
 585 581 572 586 1075
 586 582 585 587 1076
 587 583 586 588 1077
 588 584 587 601 1078
 589 303 576 590 593
 590 303 589 591 594
 591 304 590 592 595
 592 304 591 605 596
 593 589 580 594 597
 594 590 593 595 598
 595 591 594 596 599
 596 592 595 609 600
 597 593 584 598 601
 598 594 597 599 602
 599 595 598 600 603
 600 596 599 613 604
 601 597 588 602 1091
 602 598 601 603 1092
 603 599 602 604 1093
 604 600 603 617 1094
 605 307 592 606 609
 606 307 605 607 610
 607 308 606 608 611
 608 308 607 621 612
 609 605 596 610 613
 610 606 609 611 614
 611 607 610 612 615
 612 608 611 625 616
 613 609 600 614 617
 614 610 613 615 618
 615 611 614 616 619
 616 612 615 629 620
 617 613 604 618 1107
 618 614 617 619 1108
 619 615 618 620 1109
 620 616 619 633 1110
 621 311 608 622 625
 622 311 621 623 626
 623 312 622 624 627
 624 312 623 637 628
 625 621 612 626 629
 626 622 625 627 630
 627 623 626 628 631
 628 624 627 641 632
 629 625 616 630 633
 630 626 629 631 634
 631 627 630 632 635
 632 628 631 645 636
 633 629 620 634 1123
 634 630 633 635 1124
 635 631 634 636 1125
 636 632 635 649 1126
 637 315 624 638 641
 638 315 637 639 642
 639 316 638 640 643
 640 316 639 653 644
 641 637 628 642 645
 642 638 641 643 646
 643 639 642 644 647
 644 640 643 657 648
 645 641 632 646 649
 646 642 645 647 650
 647 643 646 648 651
 648 644 647 661 652
 649 645 636 650 1139
 650 646 649 651 1140
 651 647 650 652 1141
 652 648 651 665 1142
 653 319 640 654 657
 654 319 653 655 658
 655 320 654 656 659
 656 320 655 669 660
 657 653 644 658 661
 658 654 657 659 662
 659 655 658 660 663
 660 656 659 673 664
 661 657 648 662 665
 662 658 661 663 666
 663 659 662 664 667
 664 660 663 677 668
 665 661 652 666 1155
 666 662 665 667 1156
 667 663 666 668 1157
 668 664 667 681 1158
 669 323 656 670 673
 670 323 669 671 674
 671 324 670 672 675
 672 324 671 685 676
 673 669 660 674 677
 674 670 673 675 678
 675 671 674 676 679
 676 672 675 689 680
 677 673 664 678 681
 678 674 677 679 682
 679 675 678 680 683
 680 676 679 693 684
 681 677 668 682 1171
 682 678 681 683 1172
 683 679 682 684 1173
 684 680 683 697 1174
 685 327 672 686 689
 686 327 685 687 690
 687 328 686 688 691
 688 328 687 701 692
 689 685 676 690 693
 690 686 689 691 694
 691 687 690 692 695
 692 688 691 705 696
 693 689 680 694 697
 694 690 693 695 698
 695 691 694 696 699
 696 692 695 709 700
 697 693 684 698 1187
 698 694 697 699 1188
 699 695 698 700 1189
 700 696 699 713 1190
 701 331 688 702 705
 702 331 701 703 706
 703 332 702 704 707
 704 332 703 717 708
 705 701 692 706 709
 706 702 705 707 710
 707 703 706 708 711
 708 704 707 717 712
 709 705 696 710 713
 710 706 709 711 714
 711 707 710 712 715
 712 708 711 719 716
 713 709 700 714 1203
 714 710 713 715 1204
 715 711 714 716 1205
 716 712 715 719 1206
 717 335 704 708 718 719
 718 336 717 721 720
 719 717 712 716 720 1219 1220
 720 718 719 723 1221 1222
 721 337 718 722 723
 722 337 721 725 724
 723 721 720 724 1235 1236
 724 722 723 727 1237 1238
 725 338 722 726 727
 726 338 725 729 728
 727 725 724 728 1251 1252
 728 726 727 731 1253 1254
 729 339 726 730 731
 730 339 729 733 732
 731 729 728 732 1267 1268
 732 730 731 735 1269 1270
 733 340 730 734 735
 734 340 733 737 736
 735 733 732 736 1283 1284
 736 734 735 739 1285 1286
 737 341 734 738 739
 738 341 737 741 740
 739 737 736 740 1299
 740 738 739 741 1300
 741 342 738 740 742 1303 1304
 742 343 741 743 1307 1308
 743 344 742 744 1311 1312
 744 345 743 745 1315 1316
 745 346 744 746 1319
 746 347 745 747 1320
 747 348 746 748 1321
 748 349 747 749 1322
 749 350 748 750 1323
 750 351 749 751 1324
 751 352 750 752 1325
 752 353 751 753 1326
 753 354 752 754 1327
 754 355 753 755 1328
 755 356 754 756 1329
 756 357 755 757 1330
 757 358 756 758 1331
 758 359 757 759 1332
 759 360 758 760 1333
 760 759 761 1334
 761 760 1335
 762 763 1340
 763 762 764 1341
 764 361 763 765 1342
 765 362 764 766 1343
 766 363 765 767 1344
 767 364 766 768 1345
 768 365 767 769 1346
 769 366 768 770 1347
 770 367 769 771 1348
 771 368 770 772 1349
 772 369 771 773 1350
 773 370 772 774 1351 1352
 774 371 773 775 1355 1356
 775 372 774 776 1359 1360
 776 373 775 777 1363 1364
 777 374 776 778 1367 1368
 778 375 777 779 781 1371 1372
 779 376 778 780 781
 780 376 779 783 782
 781 779 778 782 1375
 782 780 781 785 1376
 783 377 780 784 785
 784 377 783 787 786
 785 783 782 786 1379 1380
 786 784 785 789 1381 1382
 787 378 784 788 789
 788 378 787 791 790
 789 787 786 790 1395 1396
 790 788 789 793 1397 1398
 791 379 788 792 793
 792 379 791 795 794
 793 791 790 794 1411 1412
 794 792 793 797 1413 1414
 795 380 792 796 797
 796 380 795 799 798
 797 795 794 798 1427 1428
 798 796 797 801 1429 1430
 799 383 796 800 801
 800 384 799 803 807 802
 801 799 798 802 1443 1444
 802 800 801 811 815 1445 1446
 803 387 800 804 807
 804 387 803 805 808
 805 388 804 806 809
 806 388 805 819 810
 807 803 800 808 811
 808 804 807 809 812
 809 805 808 810 813
 810 806 809 823 814
 811 807 802 812 815
 812 808 811 813 816
 813 809 812 814 817
 814 810 813 827 818
 815 811 802 816 1459
 816 812 815 817 1460
 817 813 816 818 1461
 818 814 817 831 1462
 819 391 806 820 823
 820 391 819 821 824
 821 392 820 822 825
 822 392 821 835 826
 823 819 810 824 827
 824 820 823 825 828
 825 821 824 826 829
 826 822 825 839 830
 827 823 814 828 831
 828 824 827 829 832
 829 825 828 830 833
 830 826 829 843 834
 831 827 818 832 1475
 832 828 831 833 1476
 833 829 832 834 1477
 834 830 833 847 1478
 835 395 822 836 839
 836 395 835 837 840
 837 396 836 838 841
 838 396 837 851 842
 839 835 826 840 843
 840 836 839 841 844
 841 837 840 842 845
 842 838 841 855 846
 843 839 830 844 847
 844 840 843 845 848
 845 841 844 846 849
 846 842 845 859 850
 847 843 834 848 1491
 848 844 847 849 1492
 849 845 848 850 1493
 850 846 849 863 1494
 851 399 838 852 855
 852 399 851 853 856
 853 400 852 854 857
 854 400 853 867 858
 855 851 842 856 859
 856 852 855 857 860
 857 853 856 858 861
 858 854 857 871 862
 859 855 846 860 863
 860 856 859 861 864
 861 857 860 862 865
 862 858 861 875 866
 863 859 850 864 1507
 864 860 863 865 1508
 865 861 864 866 1509
 866 862 865 879 1510
 867 403 854 868 871
 868 403 867 869 872
 869 404 868 870 873
 870 404 869 883 874
 871 867 858 872 875
 872 868 871 873 876
 873 869 872 874 877
 874 870 873 887 878
 875 871 862 876 879
 876 872 875 877 880
 877 873 876 878 881
 878 874 877 891 882
 879 875 866 880 1523
 880 876 879 881 1524
 881 877 880 882 1525
 882 878 881 895 1526
 883 407 870 884 887
 884 407 883 885 888
 885 408 884 886 889
 886 408 885 899 890
 887 883 874 888 891
 888 884 887 889 892
 889 885 888 890 893
 890 886 889 903 894
 891 887 878 892 895
 892 888 891 893 896
 893 889 892 894 897
 894 890 893 907 898
 895 891 882 896 1539
 896 892 895 897 1540
 897 893 896 898 1541
 898 894 897 911 1542
 899 411 886 900 903
 900 411 899 901 904
 901 412 900 902 905
 902 412 901 915 906
 903 899 890 904 907
 904 900 903 905 908
 905 901 904 906 909
 906 902 905 919 910
 907 903 894 908 911
 908 904 907 909 912
 909 905 908 910 913
 910 906 909 923 914
 911 907 898 912 1555
 912 908 911 913 1556
 913 909 912 914 1557
 914 910 913 927 1558
 915 425 902 916 919
 916 426 915 917 920
 917 427 916 918 921
 918 428 917 931 922
 919 915 906 920 923
 920 916 919 921 924
 921 917 920 922 925
 922 918 921 935 926
 923 919 910 924 927
 924 920 923 925 928
 925 921 924 926 929
 926 922 925 939 930
 927 923 914 928 1571
 928 924 927 929 1572
 929 925 928 930 1573
 930 926 929 943 1574
 931 441 918 932 935
 932 442 931 933 936
 933 443 932 934 937
 934 444 933 947 938
 935 931 922 936 939
 936 932 935 937 940
 937 933 936 938 941
 938 934 937 951 942
 939 935 926 940 943
 940 936 939 941 944
 941 937 940 942 945
 942 938 941 955 946
 943 939 930 944 1587
 944 940 943 945 1588
 945 941 944 946 1589
 946 942 945 959 1590
 947 457 934 948 951
 948 458 947 949 952
 949 459 948 950 953
 950 460 949 963 954
 951 947 938 952 955
 952 948 951 953 956
 953 949 952 954 957
 954 950 953 967 958
 955 951 942 956 959
 956 952 955 957 960
 957 953 956 958 961
 958 954 957 971 962
 959 955 946 960 1603
 960 956 959 961 1604
 961 957 960 962 1605
 962 958 961 975 1606
 963 473 950 964 967
 964 474 963 965 968
 965 475 964 966 969
 966 476 965 979 970
 967 963 954 968 971
 968 964 967 969 972
 969 965 968 970 973
 970 966 969 983 974
 971 967 958 972 975
 972 968 971 973 976
 973 969 972 974 977
 974 970 973 987 978
 975 971 962 976 1619
 976 972 975 977 1620
 977 973 976 978 1621
 978 974 977 991 1622
 979 489 966 980 983
 980 490 979 981 984
 981 491 980 982 985
 982 492 981 995 986
 983 979 970 984 987
 984 980 983 985 988
 985 981 984 986 989
 986 982 985 999 990
 987 983 974 988 991
 988 984 987 989 992
 989 985 988 990 993
 990 986 989 1003 994
 991 987 978 992 1635
 992 988 991 993 1636
 993 989 992 994 1637
 994 990 993 1007 1638
 995 505 982 996 999
 996 506 995 997 1000
 997 507 996 998 1001
 998 508 997 1011 1002
 999 995 986 1000 1003
 1000 996 999 1001 1004
 1001 997 1000 1002 1005
 1002 998 1001 1015 1006
 1003 999 990 1004 1007
 1004 1000 1003 1005 1008
 1005 1001 1004 1006 1009
 1006 1002 1005 1019 1010
 1007 1003 994 1008 1651
 1008 1004 1007 1009 1652
 1009 1005 1008 1010 1653
 1010 1006 1009 1023 1654
 1011 521 998 1012 1015
 1012 522 1011 1013 1016
 1013 523 1012 1014 1017
 1014 524 1013 1027 1018