# MODFLOW-USG name file written by Groundwater Vistas
#xll:0.000000; yll:0.000000; rotation:1.000000;
LIST 7 hillslope.lst
BAS6  1 hillslope.bas
SMS  19 hillslope.sms
DISU  29 hillslope.dis
OC  22 hillslope.oc
RCH  18 hillslope.rch
DRN  13 hillslope.drn
LPF 11 hillslope_brooks.lpf
DATA 166 hillslope_FlowReduction.dat
DATA(BINARY) 50 hillslope.gwf.cbb
DATA(BINARY) 30 hillslope.gwf.hds
DATA(BINARY) 31 hillslope.gwf.ddn
