# MODFLOW-USGs Drain Package
 1000 50
 1000 0    Stress Period 1
 1  0.050000  1.000000e+03  0
 2  0.150000  1.000000e+03  0
 3  0.250000  1.000000e+03  0
 4  0.350000  1.000000e+03  0
 5  0.450000  1.000000e+03  0
 6  0.550000  1.000000e+03  0
 7  0.650000  1.000000e+03  0
 8  0.750000  1.000000e+03  0
 9  0.850000  1.000000e+03  0
 10  0.950000  1.000000e+03  0
 11  1.050000  1.000000e+03  0
 12  1.150000  1.000000e+03  0
 13  1.250000  1.000000e+03  0
 14  1.350000  1.000000e+03  0
 15  1.450000  1.000000e+03  0
 16  1.550000  1.000000e+03  0
 17  1.650000  1.000000e+03  0
 18  1.750000  1.000000e+03  0
 19  1.850000  1.000000e+03  0
 20  1.950000  1.000000e+03  0
 21  2.050000  1.000000e+03  0
 22  2.150000  1.000000e+03  0
 23  2.250000  1.000000e+03  0
 24  2.350000  1.000000e+03  0
 25  2.450000  1.000000e+03  0
 26  2.550000  1.000000e+03  0
 27  2.650000  1.000000e+03  0
 28  2.750000  1.000000e+03  0
 29  2.850000  1.000000e+03  0
 30  2.950000  1.000000e+03  0
 31  3.050000  1.000000e+03  0
 32  3.150000  1.000000e+03  0
 33  3.250000  1.000000e+03  0
 34  3.350000  1.000000e+03  0
 35  3.450000  1.000000e+03  0
 36  3.550000  1.000000e+03  0
 37  3.650000  1.000000e+03  0
 38  3.750000  1.000000e+03  0
 39  3.850000  1.000000e+03  0
 40  3.950000  1.000000e+03  0
 41  4.050000  1.000000e+03  0
 42  4.150000  1.000000e+03  0
 43  4.250000  1.000000e+03  0
 44  4.350000  1.000000e+03  0
 45  4.450000  1.000000e+03  0
 46  4.550000  1.000000e+03  0
 47  4.650000  1.000000e+03  0
 48  4.750000  1.000000e+03  0
 49  4.850000  1.000000e+03  0
 50  4.950000  1.000000e+03  0
 51  5.050000  1.000000e+03  0
 52  5.150000  1.000000e+03  0
 53  5.250000  1.000000e+03  0
 54  5.350000  1.000000e+03  0
 55  5.450000  1.000000e+03  0
 56  5.550000  1.000000e+03  0
 57  5.650000  1.000000e+03  0
 58  5.750000  1.000000e+03  0
 59  5.850000  1.000000e+03  0
 60  5.950000  1.000000e+03  0
 61  6.050000  1.000000e+03  0
 62  6.150000  1.000000e+03  0
 63  6.250000  1.000000e+03  0
 64  6.350000  1.000000e+03  0
 65  6.450000  1.000000e+03  0
 66  6.550000  1.000000e+03  0
 67  6.650000  1.000000e+03  0
 68  6.750000  1.000000e+03  0
 69  6.850000  1.000000e+03  0
 70  6.950000  1.000000e+03  0
 71  7.050000  1.000000e+03  0
 72  7.150000  1.000000e+03  0
 73  7.250000  1.000000e+03  0
 74  7.350000  1.000000e+03  0
 75  7.450000  1.000000e+03  0
 76  7.550000  1.000000e+03  0
 77  7.650000  1.000000e+03  0
 78  7.750000  1.000000e+03  0
 79  7.850000  1.000000e+03  0
 80  7.950000  1.000000e+03  0
 81  8.050000  1.000000e+03  0
 82  8.150000  1.000000e+03  0
 83  8.250000  1.000000e+03  0
 84  8.350000  1.000000e+03  0
 85  8.450000  1.000000e+03  0
 86  8.550000  1.000000e+03  0
 87  8.650000  1.000000e+03  0
 88  8.750000  1.000000e+03  0
 89  8.850000  1.000000e+03  0
 90  8.950000  1.000000e+03  0
 91  9.050000  1.000000e+03  0
 92  9.150000  1.000000e+03  0
 93  9.250000  1.000000e+03  0
 94  9.350000  1.000000e+03  0
 95  9.450000  1.000000e+03  0
 96  9.550000  1.000000e+03  0
 97  9.650000  1.000000e+03  0
 98  9.750000  1.000000e+03  0
 99  9.850000  1.000000e+03  0
 100  9.950000  1.000000e+03  0
 101  10.050000  1.000000e+03  0
 102  10.150000  1.000000e+03  0
 103  10.250000  1.000000e+03  0
 104  10.350000  1.000000e+03  0
 105  10.450000  1.000000e+03  0
 106  10.550000  1.000000e+03  0
 107  10.650000  1.000000e+03  0
 108  10.750000  1.000000e+03  0
 109  10.850000  1.000000e+03  0
 110  10.950000  1.000000e+03  0
 111  11.050000  1.000000e+03  0
 112  11.150000  1.000000e+03  0
 113  11.250000  1.000000e+03  0
 114  11.350000  1.000000e+03  0
 115  11.450000  1.000000e+03  0
 116  11.550000  1.000000e+03  0
 117  11.650000  1.000000e+03  0
 118  11.750000  1.000000e+03  0
 119  11.850000  1.000000e+03  0
 120  11.950000  1.000000e+03  0
 121  12.050000  1.000000e+03  0
 122  12.150000  1.000000e+03  0
 123  12.250000  1.000000e+03  0
 124  12.350000  1.000000e+03  0
 125  12.450000  1.000000e+03  0
 126  12.550000  1.000000e+03  0
 127  12.650000  1.000000e+03  0
 128  12.750000  1.000000e+03  0
 129  12.850000  1.000000e+03  0
 130  12.950000  1.000000e+03  0
 131  13.050000  1.000000e+03  0
 132  13.150000  1.000000e+03  0
 133  13.250000  1.000000e+03  0
 134  13.350000  1.000000e+03  0
 135  13.450000  1.000000e+03  0
 136  13.550000  1.000000e+03  0
 137  13.650000  1.000000e+03  0
 138  13.750000  1.000000e+03  0
 139  13.850000  1.000000e+03  0
 140  13.950000  1.000000e+03  0
 141  14.050000  1.000000e+03  0
 142  14.150000  1.000000e+03  0
 143  14.250000  1.000000e+03  0
 144  14.350000  1.000000e+03  0
 145  14.450000  1.000000e+03  0
 146  14.550000  1.000000e+03  0
 147  14.650000  1.000000e+03  0
 148  14.750000  1.000000e+03  0
 149  14.850000  1.000000e+03  0
 150  14.950000  1.000000e+03  0
 151  15.050000  1.000000e+03  0
 152  15.150000  1.000000e+03  0
 153  15.250000  1.000000e+03  0
 154  15.350000  1.000000e+03  0
 155  15.450000  1.000000e+03  0
 156  15.550000  1.000000e+03  0
 157  15.650000  1.000000e+03  0
 158  15.750000  1.000000e+03  0
 159  15.850000  1.000000e+03  0
 160  15.950000  1.000000e+03  0
 161  16.050000  1.000000e+03  0
 162  16.150000  1.000000e+03  0
 163  16.250000  1.000000e+03  0
 164  16.350000  1.000000e+03  0
 165  16.450000  1.000000e+03  0
 166  16.550000  1.000000e+03  0
 167  16.650000  1.000000e+03  0
 168  16.750000  1.000000e+03  0
 169  16.850000  1.000000e+03  0
 170  16.950000  1.000000e+03  0
 171  17.050000  1.000000e+03  0
 172  17.150000  1.000000e+03  0
 173  17.250000  1.000000e+03  0
 174  17.350000  1.000000e+03  0
 175  17.450000  1.000000e+03  0
 176  17.550000  1.000000e+03  0
 177  17.650000  1.000000e+03  0
 178  17.750000  1.000000e+03  0
 179  17.850000  1.000000e+03  0
 180  17.950000  1.000000e+03  0
 181  18.050000  1.000000e+03  0
 182  18.150000  1.000000e+03  0
 183  18.250000  1.000000e+03  0
 184  18.350000  1.000000e+03  0
 185  18.450000  1.000000e+03  0
 186  18.550000  1.000000e+03  0
 187  18.650000  1.000000e+03  0
 188  18.750000  1.000000e+03  0
 189  18.850000  1.000000e+03  0
 190  18.950000  1.000000e+03  0
 191  19.050000  1.000000e+03  0
 192  19.150000  1.000000e+03  0
 193  19.250000  1.000000e+03  0
 194  19.350000  1.000000e+03  0
 195  19.450000  1.000000e+03  0
 196  19.550000  1.000000e+03  0
 197  19.650000  1.000000e+03  0
 198  19.750000  1.000000e+03  0
 199  19.850000  1.000000e+03  0
 200  19.950000  1.000000e+03  0
 201  20.050000  1.000000e+03  0
 202  20.150000  1.000000e+03  0
 203  20.250000  1.000000e+03  0
 204  20.350000  1.000000e+03  0
 205  20.450000  1.000000e+03  0
 206  20.550000  1.000000e+03  0
 207  20.650000  1.000000e+03  0
 208  20.750000  1.000000e+03  0
 209  20.850000  1.000000e+03  0
 210  20.950000  1.000000e+03  0
 211  21.050000  1.000000e+03  0
 212  21.150000  1.000000e+03  0
 213  21.250000  1.000000e+03  0
 214  21.350000  1.000000e+03  0
 215  21.450000  1.000000e+03  0
 216  21.550000  1.000000e+03  0
 217  21.650000  1.000000e+03  0
 218  21.750000  1.000000e+03  0
 219  21.850000  1.000000e+03  0
 220  21.950000  1.000000e+03  0
 221  22.050000  1.000000e+03  0
 222  22.150000  1.000000e+03  0
 223  22.250000  1.000000e+03  0
 224  22.350000  1.000000e+03  0
 225  22.450000  1.000000e+03  0
 226  22.550000  1.000000e+03  0
 227  22.650000  1.000000e+03  0
 228  22.750000  1.000000e+03  0
 229  22.850000  1.000000e+03  0
 230  22.950000  1.000000e+03  0
 231  23.050000  1.000000e+03  0
 232  23.150000  1.000000e+03  0
 233  23.250000  1.000000e+03  0
 234  23.350000  1.000000e+03  0
 235  23.450000  1.000000e+03  0
 236  23.550000  1.000000e+03  0
 237  23.650000  1.000000e+03  0
 238  23.750000  1.000000e+03  0
 239  23.850000  1.000000e+03  0
 240  23.950000  1.000000e+03  0
 241  24.050000  1.000000e+03  0
 242  24.150000  1.000000e+03  0
 243  24.250000  1.000000e+03  0
 244  24.350000  1.000000e+03  0
 245  24.450000  1.000000e+03  0
 246  24.550000  1.000000e+03  0
 247  24.650000  1.000000e+03  0
 248  24.750000  1.000000e+03  0
 249  24.850000  1.000000e+03  0
 250  24.950000  1.000000e+03  0
 251  25.050000  1.000000e+03  0
 252  25.150000  1.000000e+03  0
 253  25.250000  1.000000e+03  0
 254  25.350000  1.000000e+03  0
 255  25.450000  1.000000e+03  0
 256  25.550000  1.000000e+03  0
 257  25.650000  1.000000e+03  0
 258  25.750000  1.000000e+03  0
 259  25.850000  1.000000e+03  0
 260  25.950000  1.000000e+03  0
 261  26.050000  1.000000e+03  0
 262  26.150000  1.000000e+03  0
 263  26.250000  1.000000e+03  0
 264  26.350000  1.000000e+03  0
 265  26.450000  1.000000e+03  0
 266  26.550000  1.000000e+03  0
 267  26.650000  1.000000e+03  0
 268  26.750000  1.000000e+03  0
 269  26.850000  1.000000e+03  0
 270  26.950000  1.000000e+03  0
 271  27.050000  1.000000e+03  0
 272  27.150000  1.000000e+03  0
 273  27.250000  1.000000e+03  0
 274  27.350000  1.000000e+03  0
 275  27.450000  1.000000e+03  0
 276  27.550000  1.000000e+03  0
 277  27.650000  1.000000e+03  0
 278  27.750000  1.000000e+03  0
 279  27.850000  1.000000e+03  0
 280  27.950000  1.000000e+03  0
 281  28.050000  1.000000e+03  0
 282  28.150000  1.000000e+03  0
 283  28.250000  1.000000e+03  0
 284  28.350000  1.000000e+03  0
 285  28.450000  1.000000e+03  0
 286  28.550000  1.000000e+03  0
 287  28.650000  1.000000e+03  0
 288  28.750000  1.000000e+03  0
 289  28.850000  1.000000e+03  0
 290  28.950000  1.000000e+03  0
 291  29.050000  1.000000e+03  0
 292  29.150000  1.000000e+03  0
 293  29.250000  1.000000e+03  0
 294  29.350000  1.000000e+03  0
 295  29.450000  1.000000e+03  0
 296  29.550000  1.000000e+03  0
 297  29.650000  1.000000e+03  0
 298  29.750000  1.000000e+03  0
 299  29.850000  1.000000e+03  0
 300  29.950000  1.000000e+03  0
 301  30.050000  1.000000e+03  0
 302  30.150000  1.000000e+03  0
 303  30.250000  1.000000e+03  0
 304  30.350000  1.000000e+03  0
 305  30.450000  1.000000e+03  0
 306  30.550000  1.000000e+03  0
 307  30.650000  1.000000e+03  0
 308  30.750000  1.000000e+03  0
 309  30.850000  1.000000e+03  0
 310  30.950000  1.000000e+03  0
 311  31.050000  1.000000e+03  0
 312  31.150000  1.000000e+03  0
 313  31.250000  1.000000e+03  0
 314  31.350000  1.000000e+03  0
 315  31.450000  1.000000e+03  0
 316  31.550000  1.000000e+03  0
 317  31.650000  1.000000e+03  0
 318  31.750000  1.000000e+03  0
 319  31.850000  1.000000e+03  0
 320  31.950000  1.000000e+03  0
 321  32.050000  1.000000e+03  0
 322  32.150000  1.000000e+03  0
 323  32.250000  1.000000e+03  0
 324  32.350000  1.000000e+03  0
 325  32.450000  1.000000e+03  0
 326  32.550000  1.000000e+03  0
 327  32.650000  1.000000e+03  0
 328  32.750000  1.000000e+03  0
 329  32.850000  1.000000e+03  0
 330  32.950000  1.000000e+03  0
 331  33.050000  1.000000e+03  0
 332  33.150000  1.000000e+03  0
 333  33.250000  1.000000e+03  0
 334  33.350000  1.000000e+03  0
 335  33.450000  1.000000e+03  0
 336  33.550000  1.000000e+03  0
 337  33.650000  1.000000e+03  0
 338  33.750000  1.000000e+03  0
 339  33.850000  1.000000e+03  0
 340  33.950000  1.000000e+03  0
 341  34.050000  1.000000e+03  0
 342  34.150000  1.000000e+03  0
 343  34.250000  1.000000e+03  0
 344  34.350000  1.000000e+03  0
 345  34.450000  1.000000e+03  0
 346  34.550000  1.000000e+03  0
 347  34.650000  1.000000e+03  0
 348  34.750000  1.000000e+03  0
 349  34.850000  1.000000e+03  0
 350  34.950000  1.000000e+03  0
 351  35.050000  1.000000e+03  0
 352  35.150000  1.000000e+03  0
 353  35.250000  1.000000e+03  0
 354  35.350000  1.000000e+03  0
 355  35.450000  1.000000e+03  0
 356  35.550000  1.000000e+03  0
 357  35.650000  1.000000e+03  0
 358  35.750000  1.000000e+03  0
 359  35.850000  1.000000e+03  0
 360  35.950000  1.000000e+03  0
 361  36.050000  1.000000e+03  0
 362  36.150000  1.000000e+03  0
 363  36.250000  1.000000e+03  0
 364  36.350000  1.000000e+03  0
 365  36.450000  1.000000e+03  0
 366  36.550000  1.000000e+03  0
 367  36.650000  1.000000e+03  0
 368  36.750000  1.000000e+03  0
 369  36.850000  1.000000e+03  0
 370  36.950000  1.000000e+03  0
 371  37.050000  1.000000e+03  0
 372  37.150000  1.000000e+03  0
 373  37.250000  1.000000e+03  0
 374  37.350000  1.000000e+03  0
 375  37.450000  1.000000e+03  0
 376  37.550000  1.000000e+03  0
 377  37.650000  1.000000e+03  0
 378  37.750000  1.000000e+03  0
 379  37.850000  1.000000e+03  0
 380  37.950000  1.000000e+03  0
 381  38.050000  1.000000e+03  0
 382  38.150000  1.000000e+03  0
 383  38.250000  1.000000e+03  0
 384  38.350000  1.000000e+03  0
 385  38.450000  1.000000e+03  0
 386  38.550000  1.000000e+03  0
 387  38.650000  1.000000e+03  0
 388  38.750000  1.000000e+03  0
 389  38.850000  1.000000e+03  0
 390  38.950000  1.000000e+03  0
 391  39.050000  1.000000e+03  0
 392  39.150000  1.000000e+03  0
 393  39.250000  1.000000e+03  0
 394  39.350000  1.000000e+03  0
 395  39.450000  1.000000e+03  0
 396  39.550000  1.000000e+03  0
 397  39.650000  1.000000e+03  0
 398  39.750000  1.000000e+03  0
 399  39.850000  1.000000e+03  0
 400  39.950000  1.000000e+03  0
 401  40.050000  1.000000e+03  0
 402  40.150000  1.000000e+03  0
 403  40.250000  1.000000e+03  0
 404  40.350000  1.000000e+03  0
 405  40.450000  1.000000e+03  0
 406  40.550000  1.000000e+03  0
 407  40.650000  1.000000e+03  0
 408  40.750000  1.000000e+03  0
 409  40.850000  1.000000e+03  0
 410  40.950000  1.000000e+03  0
 411  41.050000  1.000000e+03  0
 412  41.150000  1.000000e+03  0
 413  41.250000  1.000000e+03  0
 414  41.350000  1.000000e+03  0
 415  41.450000  1.000000e+03  0
 416  41.550000  1.000000e+03  0
 417  41.650000  1.000000e+03  0
 418  41.750000  1.000000e+03  0
 419  41.850000  1.000000e+03  0
 420  41.950000  1.000000e+03  0
 421  42.050000  1.000000e+03  0
 422  42.150000  1.000000e+03  0
 423  42.250000  1.000000e+03  0
 424  42.350000  1.000000e+03  0
 425  42.450000  1.000000e+03  0
 426  42.550000  1.000000e+03  0
 427  42.650000  1.000000e+03  0
 428  42.750000  1.000000e+03  0
 429  42.850000  1.000000e+03  0
 430  42.950000  1.000000e+03  0
 431  43.050000  1.000000e+03  0
 432  43.150000  1.000000e+03  0
 433  43.250000  1.000000e+03  0
 434  43.350000  1.000000e+03  0
 435  43.450000  1.000000e+03  0
 436  43.550000  1.000000e+03  0
 437  43.650000  1.000000e+03  0
 438  43.750000  1.000000e+03  0
 439  43.850000  1.000000e+03  0
 440  43.950000  1.000000e+03  0
 441  44.050000  1.000000e+03  0
 442  44.150000  1.000000e+03  0
 443  44.250000  1.000000e+03  0
 444  44.350000  1.000000e+03  0
 445  44.450000  1.000000e+03  0
 446  44.550000  1.000000e+03  0
 447  44.650000  1.000000e+03  0
 448  44.750000  1.000000e+03  0
 449  44.850000  1.000000e+03  0
 450  44.950000  1.000000e+03  0
 451  45.050000  1.000000e+03  0
 452  45.150000  1.000000e+03  0
 453  45.250000  1.000000e+03  0
 454  45.350000  1.000000e+03  0
 455  45.450000  1.000000e+03  0
 456  45.550000  1.000000e+03  0
 457  45.650000  1.000000e+03  0
 458  45.750000  1.000000e+03  0
 459  45.850000  1.000000e+03  0
 460  45.950000  1.000000e+03  0
 461  46.050000  1.000000e+03  0
 462  46.150000  1.000000e+03  0
 463  46.250000  1.000000e+03  0
 464  46.350000  1.000000e+03  0
 465  46.450000  1.000000e+03  0
 466  46.550000  1.000000e+03  0
 467  46.650000  1.000000e+03  0
 468  46.750000  1.000000e+03  0
 469  46.850000  1.000000e+03  0
 470  46.950000  1.000000e+03  0
 471  47.050000  1.000000e+03  0
 472  47.150000  1.000000e+03  0
 473  47.250000  1.000000e+03  0
 474  47.350000  1.000000e+03  0
 475  47.450000  1.000000e+03  0
 476  47.550000  1.000000e+03  0
 477  47.650000  1.000000e+03  0
 478  47.750000  1.000000e+03  0
 479  47.850000  1.000000e+03  0
 480  47.950000  1.000000e+03  0
 481  48.050000  1.000000e+03  0
 482  48.150000  1.000000e+03  0
 483  48.250000  1.000000e+03  0
 484  48.350000  1.000000e+03  0
 485  48.450000  1.000000e+03  0
 486  48.550000  1.000000e+03  0
 487  48.650000  1.000000e+03  0
 488  48.750000  1.000000e+03  0
 489  48.850000  1.000000e+03  0
 490  48.950000  1.000000e+03  0
 491  49.050000  1.000000e+03  0
 492  49.150000  1.000000e+03  0
 493  49.250000  1.000000e+03  0
 494  49.350000  1.000000e+03  0
 495  49.450000  1.000000e+03  0
 496  49.550000  1.000000e+03  0
 497  49.650000  1.000000e+03  0
 498  49.750000  1.000000e+03  0
 499  49.850000  1.000000e+03  0
 500  49.950000  1.000000e+03  0
 501  50.050000  1.000000e+03  0
 502  50.150000  1.000000e+03  0
 503  50.250000  1.000000e+03  0
 504  50.350000  1.000000e+03  0
 505  50.450000  1.000000e+03  0
 506  50.550000  1.000000e+03  0
 507  50.650000  1.000000e+03  0
 508  50.750000  1.000000e+03  0
 509  50.850000  1.000000e+03  0
 510  50.950000  1.000000e+03  0
 511  51.050000  1.000000e+03  0
 512  51.150000  1.000000e+03  0
 513  51.250000  1.000000e+03  0
 514  51.350000  1.000000e+03  0
 515  51.450000  1.000000e+03  0
 516  51.550000  1.000000e+03  0
 517  51.650000  1.000000e+03  0
 518  51.750000  1.000000e+03  0
 519  51.850000  1.000000e+03  0
 520  51.950000  1.000000e+03  0
 521  52.050000  1.000000e+03  0
 522  52.150000  1.000000e+03  0
 523  52.250000  1.000000e+03  0
 524  52.350000  1.000000e+03  0
 525  52.450000  1.000000e+03  0
 526  52.550000  1.000000e+03  0
 527  52.650000  1.000000e+03  0
 528  52.750000  1.000000e+03  0
 529  52.850000  1.000000e+03  0
 530  52.950000  1.000000e+03  0
 531  53.050000  1.000000e+03  0
 532  53.150000  1.000000e+03  0
 533  53.250000  1.000000e+03  0
 534  53.350000  1.000000e+03  0
 535  53.450000  1.000000e+03  0
 536  53.550000  1.000000e+03  0
 537  53.650000  1.000000e+03  0
 538  53.750000  1.000000e+03  0
 539  53.850000  1.000000e+03  0
 540  53.950000  1.000000e+03  0
 541  54.050000  1.000000e+03  0
 542  54.150000  1.000000e+03  0
 543  54.250000  1.000000e+03  0
 544  54.350000  1.000000e+03  0
 545  54.450000  1.000000e+03  0
 546  54.550000  1.000000e+03  0
 547  54.650000  1.000000e+03  0
 548  54.750000  1.000000e+03  0
 549  54.850000  1.000000e+03  0
 550  54.950000  1.000000e+03  0
 551  55.050000  1.000000e+03  0
 552  55.150000  1.000000e+03  0
 553  55.250000  1.000000e+03  0
 554  55.350000  1.000000e+03  0
 555  55.450000  1.000000e+03  0
 556  55.550000  1.000000e+03  0
 557  55.650000  1.000000e+03  0
 558  55.750000  1.000000e+03  0
 559  55.850000  1.000000e+03  0
 560  55.950000  1.000000e+03  0
 561  56.050000  1.000000e+03  0
 562  56.150000  1.000000e+03  0
 563  56.250000  1.000000e+03  0
 564  56.350000  1.000000e+03  0
 565  56.450000  1.000000e+03  0
 566  56.550000  1.000000e+03  0
 567  56.650000  1.000000e+03  0
 568  56.750000  1.000000e+03  0
 569  56.850000  1.000000e+03  0
 570  56.950000  1.000000e+03  0
 571  57.050000  1.000000e+03  0
 572  57.150000  1.000000e+03  0
 573  57.250000  1.000000e+03  0
 574  57.350000  1.000000e+03  0
 575  57.450000  1.000000e+03  0
 576  57.550000  1.000000e+03  0
 577  57.650000  1.000000e+03  0
 578  57.750000  1.000000e+03  0
 579  57.850000  1.000000e+03  0
 580  57.950000  1.000000e+03  0
 581  58.050000  1.000000e+03  0
 582  58.150000  1.000000e+03  0
 583  58.250000  1.000000e+03  0
 584  58.350000  1.000000e+03  0
 585  58.450000  1.000000e+03  0
 586  58.550000  1.000000e+03  0
 587  58.650000  1.000000e+03  0
 588  58.750000  1.000000e+03  0
 589  58.850000  1.000000e+03  0
 590  58.950000  1.000000e+03  0
 591  59.050000  1.000000e+03  0
 592  59.150000  1.000000e+03  0
 593  59.250000  1.000000e+03  0
 594  59.350000  1.000000e+03  0
 595  59.450000  1.000000e+03  0
 596  59.550000  1.000000e+03  0
 597  59.650000  1.000000e+03  0
 598  59.750000  1.000000e+03  0
 599  59.850000  1.000000e+03  0
 600  59.950000  1.000000e+03  0
 601  60.050000  1.000000e+03  0
 602  60.150000  1.000000e+03  0
 603  60.250000  1.000000e+03  0
 604  60.350000  1.000000e+03  0
 605  60.450000  1.000000e+03  0
 606  60.550000  1.000000e+03  0
 607  60.650000  1.000000e+03  0
 608  60.750000  1.000000e+03  0
 609  60.850000  1.000000e+03  0
 610  60.950000  1.000000e+03  0
 611  61.050000  1.000000e+03  0
 612  61.150000  1.000000e+03  0
 613  61.250000  1.000000e+03  0
 614  61.350000  1.000000e+03  0
 615  61.450000  1.000000e+03  0
 616  61.550000  1.000000e+03  0
 617  61.650000  1.000000e+03  0
 618  61.750000  1.000000e+03  0
 619  61.850000  1.000000e+03  0
 620  61.950000  1.000000e+03  0
 621  62.050000  1.000000e+03  0
 622  62.150000  1.000000e+03  0
 623  62.250000  1.000000e+03  0
 624  62.350000  1.000000e+03  0
 625  62.450000  1.000000e+03  0
 626  62.550000  1.000000e+03  0
 627  62.650000  1.000000e+03  0
 628  62.750000  1.000000e+03  0
 629  62.850000  1.000000e+03  0
 630  62.950000  1.000000e+03  0
 631  63.050000  1.000000e+03  0
 632  63.150000  1.000000e+03  0
 633  63.250000  1.000000e+03  0
 634  63.350000  1.000000e+03  0
 635  63.450000  1.000000e+03  0
 636  63.550000  1.000000e+03  0
 637  63.650000  1.000000e+03  0
 638  63.750000  1.000000e+03  0
 639  63.850000  1.000000e+03  0
 640  63.950000  1.000000e+03  0
 641  64.050000  1.000000e+03  0
 642  64.150000  1.000000e+03  0
 643  64.250000  1.000000e+03  0
 644  64.350000  1.000000e+03  0
 645  64.450000  1.000000e+03  0
 646  64.550000  1.000000e+03  0
 647  64.650000  1.000000e+03  0
 648  64.750000  1.000000e+03  0
 649  64.850000  1.000000e+03  0
 650  64.950000  1.000000e+03  0
 651  65.050000  1.000000e+03  0
 652  65.150000  1.000000e+03  0
 653  65.250000  1.000000e+03  0
 654  65.350000  1.000000e+03  0
 655  65.450000  1.000000e+03  0
 656  65.550000  1.000000e+03  0
 657  65.650000  1.000000e+03  0
 658  65.750000  1.000000e+03  0
 659  65.850000  1.000000e+03  0
 660  65.950000  1.000000e+03  0
 661  66.050000  1.000000e+03  0
 662  66.150000  1.000000e+03  0
 663  66.250000  1.000000e+03  0
 664  66.350000  1.000000e+03  0
 665  66.450000  1.000000e+03  0
 666  66.550000  1.000000e+03  0
 667  66.650000  1.000000e+03  0
 668  66.750000  1.000000e+03  0
 669  66.850000  1.000000e+03  0
 670  66.950000  1.000000e+03  0
 671  67.050000  1.000000e+03  0
 672  67.150000  1.000000e+03  0
 673  67.250000  1.000000e+03  0
 674  67.350000  1.000000e+03  0
 675  67.450000  1.000000e+03  0
 676  67.550000  1.000000e+03  0
 677  67.650000  1.000000e+03  0
 678  67.750000  1.000000e+03  0
 679  67.850000  1.000000e+03  0
 680  67.950000  1.000000e+03  0
 681  68.050000  1.000000e+03  0
 682  68.150000  1.000000e+03  0
 683  68.250000  1.000000e+03  0
 684  68.350000  1.000000e+03  0
 685  68.450000  1.000000e+03  0
 686  68.550000  1.000000e+03  0
 687  68.650000  1.000000e+03  0
 688  68.750000  1.000000e+03  0
 689  68.850000  1.000000e+03  0
 690  68.950000  1.000000e+03  0
 691  69.050000  1.000000e+03  0
 692  69.150000  1.000000e+03  0
 693  69.250000  1.000000e+03  0
 694  69.350000  1.000000e+03  0
 695  69.450000  1.000000e+03  0
 696  69.550000  1.000000e+03  0
 697  69.650000  1.000000e+03  0
 698  69.750000  1.000000e+03  0
 699  69.850000  1.000000e+03  0
 700  69.950000  1.000000e+03  0
 701  70.050000  1.000000e+03  0
 702  70.150000  1.000000e+03  0
 703  70.250000  1.000000e+03  0
 704  70.350000  1.000000e+03  0
 705  70.450000  1.000000e+03  0
 706  70.550000  1.000000e+03  0
 707  70.650000  1.000000e+03  0
 708  70.750000  1.000000e+03  0
 709  70.850000  1.000000e+03  0
 710  70.950000  1.000000e+03  0
 711  71.050000  1.000000e+03  0
 712  71.150000  1.000000e+03  0
 713  71.250000  1.000000e+03  0
 714  71.350000  1.000000e+03  0
 715  71.450000  1.000000e+03  0
 716  71.550000  1.000000e+03  0
 717  71.650000  1.000000e+03  0
 718  71.750000  1.000000e+03  0
 719  71.850000  1.000000e+03  0
 720  71.950000  1.000000e+03  0
 721  72.050000  1.000000e+03  0
 722  72.150000  1.000000e+03  0
 723  72.250000  1.000000e+03  0
 724  72.350000  1.000000e+03  0
 725  72.450000  1.000000e+03  0
 726  72.550000  1.000000e+03  0
 727  72.650000  1.000000e+03  0
 728  72.750000  1.000000e+03  0
 729  72.850000  1.000000e+03  0
 730  72.950000  1.000000e+03  0
 731  73.050000  1.000000e+03  0
 732  73.150000  1.000000e+03  0
 733  73.250000  1.000000e+03  0
 734  73.350000  1.000000e+03  0
 735  73.450000  1.000000e+03  0
 736  73.550000  1.000000e+03  0
 737  73.650000  1.000000e+03  0
 738  73.750000  1.000000e+03  0
 739  73.850000  1.000000e+03  0
 740  73.950000  1.000000e+03  0
 741  74.050000  1.000000e+03  0
 742  74.150000  1.000000e+03  0
 743  74.250000  1.000000e+03  0
 744  74.350000  1.000000e+03  0
 745  74.450000  1.000000e+03  0
 746  74.550000  1.000000e+03  0
 747  74.650000  1.000000e+03  0
 748  74.750000  1.000000e+03  0
 749  74.850000  1.000000e+03  0
 750  74.950000  1.000000e+03  0
 751  75.050000  1.000000e+03  0
 752  75.150000  1.000000e+03  0
 753  75.250000  1.000000e+03  0
 754  75.350000  1.000000e+03  0
 755  75.450000  1.000000e+03  0
 756  75.550000  1.000000e+03  0
 757  75.650000  1.000000e+03  0
 758  75.750000  1.000000e+03  0
 759  75.850000  1.000000e+03  0
 760  75.950000  1.000000e+03  0
 761  76.050000  1.000000e+03  0
 762  76.150000  1.000000e+03  0
 763  76.250000  1.000000e+03  0
 764  76.350000  1.000000e+03  0
 765  76.450000  1.000000e+03  0
 766  76.550000  1.000000e+03  0
 767  76.650000  1.000000e+03  0
 768  76.750000  1.000000e+03  0
 769  76.850000  1.000000e+03  0
 770  76.950000  1.000000e+03  0
 771  77.050000  1.000000e+03  0
 772  77.150000  1.000000e+03  0
 773  77.250000  1.000000e+03  0
 774  77.350000  1.000000e+03  0
 775  77.450000  1.000000e+03  0
 776  77.550000  1.000000e+03  0
 777  77.650000  1.000000e+03  0
 778  77.750000  1.000000e+03  0
 779  77.850000  1.000000e+03  0
 780  77.950000  1.000000e+03  0
 781  78.050000  1.000000e+03  0
 782  78.150000  1.000000e+03  0
 783  78.250000  1.000000e+03  0
 784  78.350000  1.000000e+03  0
 785  78.450000  1.000000e+03  0
 786  78.550000  1.000000e+03  0
 787  78.650000  1.000000e+03  0
 788  78.750000  1.000000e+03  0
 789  78.850000  1.000000e+03  0
 790  78.950000  1.000000e+03  0
 791  79.050000  1.000000e+03  0
 792  79.150000  1.000000e+03  0
 793  79.250000  1.000000e+03  0
 794  79.350000  1.000000e+03  0
 795  79.450000  1.000000e+03  0
 796  79.550000  1.000000e+03  0
 797  79.650000  1.000000e+03  0
 798  79.750000  1.000000e+03  0
 799  79.850000  1.000000e+03  0
 800  79.950000  1.000000e+03  0
 801  80.050000  1.000000e+03  0
 802  80.150000  1.000000e+03  0
 803  80.250000  1.000000e+03  0
 804  80.350000  1.000000e+03  0
 805  80.450000  1.000000e+03  0
 806  80.550000  1.000000e+03  0
 807  80.650000  1.000000e+03  0
 808  80.750000  1.000000e+03  0
 809  80.850000  1.000000e+03  0
 810  80.950000  1.000000e+03  0
 811  81.050000  1.000000e+03  0
 812  81.150000  1.000000e+03  0
 813  81.250000  1.000000e+03  0
 814  81.350000  1.000000e+03  0
 815  81.450000  1.000000e+03  0
 816  81.550000  1.000000e+03  0
 817  81.650000  1.000000e+03  0
 818  81.750000  1.000000e+03  0
 819  81.850000  1.000000e+03  0
 820  81.950000  1.000000e+03  0
 821  82.050000  1.000000e+03  0
 822  82.150000  1.000000e+03  0
 823  82.250000  1.000000e+03  0
 824  82.350000  1.000000e+03  0
 825  82.450000  1.000000e+03  0
 826  82.550000  1.000000e+03  0
 827  82.650000  1.000000e+03  0
 828  82.750000  1.000000e+03  0
 829  82.850000  1.000000e+03  0
 830  82.950000  1.000000e+03  0
 831  83.050000  1.000000e+03  0
 832  83.150000  1.000000e+03  0
 833  83.250000  1.000000e+03  0
 834  83.350000  1.000000e+03  0
 835  83.450000  1.000000e+03  0
 836  83.550000  1.000000e+03  0
 837  83.650000  1.000000e+03  0
 838  83.750000  1.000000e+03  0
 839  83.850000  1.000000e+03  0
 840  83.950000  1.000000e+03  0
 841  84.050000  1.000000e+03  0
 842  84.150000  1.000000e+03  0
 843  84.250000  1.000000e+03  0
 844  84.350000  1.000000e+03  0
 845  84.450000  1.000000e+03  0
 846  84.550000  1.000000e+03  0
 847  84.650000  1.000000e+03  0
 848  84.750000  1.000000e+03  0
 849  84.850000  1.000000e+03  0
 850  84.950000  1.000000e+03  0
 851  85.050000  1.000000e+03  0
 852  85.150000  1.000000e+03  0
 853  85.250000  1.000000e+03  0
 854  85.350000  1.000000e+03  0
 855  85.450000  1.000000e+03  0
 856  85.550000  1.000000e+03  0
 857  85.650000  1.000000e+03  0
 858  85.750000  1.000000e+03  0
 859  85.850000  1.000000e+03  0
 860  85.950000  1.000000e+03  0
 861  86.050000  1.000000e+03  0
 862  86.150000  1.000000e+03  0
 863  86.250000  1.000000e+03  0
 864  86.350000  1.000000e+03  0
 865  86.450000  1.000000e+03  0
 866  86.550000  1.000000e+03  0
 867  86.650000  1.000000e+03  0
 868  86.750000  1.000000e+03  0
 869  86.850000  1.000000e+03  0
 870  86.950000  1.000000e+03  0
 871  87.050000  1.000000e+03  0
 872  87.150000  1.000000e+03  0
 873  87.250000  1.000000e+03  0
 874  87.350000  1.000000e+03  0
 875  87.450000  1.000000e+03  0
 876  87.550000  1.000000e+03  0
 877  87.650000  1.000000e+03  0
 878  87.750000  1.000000e+03  0
 879  87.850000  1.000000e+03  0
 880  87.950000  1.000000e+03  0
 881  88.050000  1.000000e+03  0
 882  88.150000  1.000000e+03  0
 883  88.250000  1.000000e+03  0
 884  88.350000  1.000000e+03  0
 885  88.450000  1.000000e+03  0
 886  88.550000  1.000000e+03  0
 887  88.650000  1.000000e+03  0
 888  88.750000  1.000000e+03  0
 889  88.850000  1.000000e+03  0
 890  88.950000  1.000000e+03  0
 891  89.050000  1.000000e+03  0
 892  89.150000  1.000000e+03  0
 893  89.250000  1.000000e+03  0
 894  89.350000  1.000000e+03  0
 895  89.450000  1.000000e+03  0
 896  89.550000  1.000000e+03  0
 897  89.650000  1.000000e+03  0
 898  89.750000  1.000000e+03  0
 899  89.850000  1.000000e+03  0
 900  89.950000  1.000000e+03  0
 901  90.050000  1.000000e+03  0
 902  90.150000  1.000000e+03  0
 903  90.250000  1.000000e+03  0
 904  90.350000  1.000000e+03  0
 905  90.450000  1.000000e+03  0
 906  90.550000  1.000000e+03  0
 907  90.650000  1.000000e+03  0
 908  90.750000  1.000000e+03  0
 909  90.850000  1.000000e+03  0
 910  90.950000  1.000000e+03  0
 911  91.050000  1.000000e+03  0
 912  91.150000  1.000000e+03  0
 913  91.250000  1.000000e+03  0