# MODFLOW-USGs Constant-Head Boundary Package (CHD)
         1
 1    Stress Period 1
 101   -100.000000  -100.000000  0
