# MODFLOW-USGs Basic Package
# MODFLOW Data Set Created by Groundwater Vistas
#    
 UNSTRUCTURED FREE  RICHARDS
CONSTANT  1              IBOUND Layer 1
CONSTANT  1              IBOUND Layer 2
CONSTANT  1              IBOUND Layer 3
CONSTANT  1              IBOUND Layer 4
CONSTANT  1              IBOUND Layer 5
CONSTANT  1              IBOUND Layer 6
CONSTANT  1              IBOUND Layer 7
CONSTANT  1              IBOUND Layer 8
CONSTANT  1              IBOUND Layer 9
CONSTANT  1              IBOUND Layer 10
CONSTANT  1              IBOUND Layer 11
CONSTANT  1              IBOUND Layer 12
CONSTANT  1              IBOUND Layer 13
CONSTANT  1              IBOUND Layer 14
CONSTANT  1              IBOUND Layer 15
CONSTANT  1              IBOUND Layer 16
CONSTANT  1              IBOUND Layer 17
CONSTANT  1              IBOUND Layer 18
CONSTANT  1              IBOUND Layer 19
CONSTANT  1              IBOUND Layer 20
CONSTANT  1              IBOUND Layer 21
CONSTANT  1              IBOUND Layer 22
CONSTANT  1              IBOUND Layer 23
CONSTANT  1              IBOUND Layer 24
CONSTANT  1              IBOUND Layer 25
CONSTANT  1              IBOUND Layer 26
CONSTANT  1              IBOUND Layer 27
CONSTANT  1              IBOUND Layer 28
CONSTANT  1              IBOUND Layer 29
CONSTANT  1              IBOUND Layer 30
CONSTANT  1              IBOUND Layer 31
CONSTANT  1              IBOUND Layer 32
CONSTANT  1              IBOUND Layer 33
CONSTANT  1              IBOUND Layer 34
CONSTANT  1              IBOUND Layer 35
CONSTANT  1              IBOUND Layer 36
CONSTANT  1              IBOUND Layer 37
CONSTANT  1              IBOUND Layer 38
CONSTANT  1              IBOUND Layer 39
CONSTANT  1              IBOUND Layer 40
CONSTANT  1              IBOUND Layer 41
CONSTANT  1              IBOUND Layer 42
CONSTANT  1              IBOUND Layer 43
CONSTANT  1              IBOUND Layer 44
CONSTANT  1              IBOUND Layer 45
CONSTANT  1              IBOUND Layer 46
CONSTANT  1              IBOUND Layer 47
CONSTANT  1              IBOUND Layer 48
CONSTANT  1              IBOUND Layer 49
CONSTANT  1              IBOUND Layer 50
CONSTANT  1              IBOUND Layer 51
CONSTANT  1              IBOUND Layer 52
CONSTANT  1              IBOUND Layer 53
CONSTANT  1              IBOUND Layer 54
CONSTANT  1              IBOUND Layer 55
CONSTANT  1              IBOUND Layer 56
CONSTANT  1              IBOUND Layer 57
CONSTANT  1              IBOUND Layer 58
CONSTANT  1              IBOUND Layer 59
CONSTANT  1              IBOUND Layer 60
CONSTANT  1              IBOUND Layer 61
CONSTANT  1              IBOUND Layer 62
CONSTANT  1              IBOUND Layer 63
CONSTANT  1              IBOUND Layer 64
CONSTANT  1              IBOUND Layer 65
CONSTANT  1              IBOUND Layer 66
CONSTANT  1              IBOUND Layer 67
CONSTANT  1              IBOUND Layer 68
CONSTANT  1              IBOUND Layer 69
CONSTANT  1              IBOUND Layer 70
CONSTANT  1              IBOUND Layer 71
CONSTANT  1              IBOUND Layer 72
CONSTANT  1              IBOUND Layer 73
CONSTANT  1              IBOUND Layer 74
CONSTANT  1              IBOUND Layer 75
CONSTANT  1              IBOUND Layer 76
CONSTANT  1              IBOUND Layer 77
CONSTANT  1              IBOUND Layer 78
CONSTANT  1              IBOUND Layer 79
CONSTANT  1              IBOUND Layer 80
CONSTANT  1              IBOUND Layer 81
CONSTANT  1              IBOUND Layer 82
CONSTANT  1              IBOUND Layer 83
CONSTANT  1              IBOUND Layer 84
CONSTANT  1              IBOUND Layer 85
CONSTANT  1              IBOUND Layer 86
CONSTANT  1              IBOUND Layer 87
CONSTANT  1              IBOUND Layer 88
CONSTANT  1              IBOUND Layer 89
CONSTANT  1              IBOUND Layer 90
CONSTANT  1              IBOUND Layer 91
CONSTANT  1              IBOUND Layer 92
CONSTANT  1              IBOUND Layer 93
CONSTANT  1              IBOUND Layer 94
CONSTANT  1              IBOUND Layer 95
CONSTANT  1              IBOUND Layer 96
CONSTANT  1              IBOUND Layer 97
CONSTANT  1              IBOUND Layer 98
CONSTANT  1              IBOUND Layer 99
CONSTANT  1              IBOUND Layer 100
CONSTANT  1              IBOUND Layer 101
9.990000e+02
INTERNAL  1.000000e+00  (FREE)  -1  Starting Heads Layer 1
 0.000000e+00
INTERNAL  1.000000e+00  (FREE)  -1  Starting Heads Layer 2
 -1.000000e+00
INTERNAL  1.000000e+00  (FREE)  -1  Starting Heads Layer 3
 -2.000000e+00
INTERNAL  1.000000e+00  (FREE)  -1  Starting Heads Layer 4
 -3.000000e+00
INTERNAL  1.000000e+00  (FREE)  -1  Starting Heads Layer 5
 -4.000000e+00
INTERNAL  1.000000e+00  (FREE)  -1  Starting Heads Layer 6
 -5.000000e+00
INTERNAL  1.000000e+00  (FREE)  -1  Starting Heads Layer 7
 -6.000000e+00
INTERNAL  1.000000e+00  (FREE)  -1  Starting Heads Layer 8
 -7.000000e+00
INTERNAL  1.000000e+00  (FREE)  -1  Starting Heads Layer 9
 -8.000000e+00
INTERNAL  1.000000e+00  (FREE)  -1  Starting Heads Layer 10
 -9.000000e+00
INTERNAL  1.000000e+00  (FREE)  -1  Starting Heads Layer 11
 -1.000000e+01
INTERNAL  1.000000e+00  (FREE)  -1  Starting Heads Layer 12
 -1.100000e+01
INTERNAL  1.000000e+00  (FREE)  -1  Starting Heads Layer 13
 -1.200000e+01
INTERNAL  1.000000e+00  (FREE)  -1  Starting Heads Layer 14
 -1.300000e+01
INTERNAL  1.000000e+00  (FREE)  -1  Starting Heads Layer 15
 -1.400000e+01
INTERNAL  1.000000e+00  (FREE)  -1  Starting Heads Layer 16
 -1.500000e+01
INTERNAL  1.000000e+00  (FREE)  -1  Starting Heads Layer 17
 -1.600000e+01
INTERNAL  1.000000e+00  (FREE)  -1  Starting Heads Layer 18
 -1.700000e+01
INTERNAL  1.000000e+00  (FREE)  -1  Starting Heads Layer 19
 -1.800000e+01
INTERNAL  1.000000e+00  (FREE)  -1  Starting Heads Layer 20
 -1.900000e+01
INTERNAL  1.000000e+00  (FREE)  -1  Starting Heads Layer 21
 -2.000000e+01
INTERNAL  1.000000e+00  (FREE)  -1  Starting Heads Layer 22
 -2.100000e+01
INTERNAL  1.000000e+00  (FREE)  -1  Starting Heads Layer 23
 -2.200000e+01
INTERNAL  1.000000e+00  (FREE)  -1  Starting Heads Layer 24
 -2.300000e+01
INTERNAL  1.000000e+00  (FREE)  -1  Starting Heads Layer 25
 -2.400000e+01
INTERNAL  1.000000e+00  (FREE)  -1  Starting Heads Layer 26
 -2.500000e+01
INTERNAL  1.000000e+00  (FREE)  -1  Starting Heads Layer 27
 -2.600000e+01
INTERNAL  1.000000e+00  (FREE)  -1  Starting Heads Layer 28
 -2.700000e+01
INTERNAL  1.000000e+00  (FREE)  -1  Starting Heads Layer 29
 -2.800000e+01
INTERNAL  1.000000e+00  (FREE)  -1  Starting Heads Layer 30
 -2.900000e+01
INTERNAL  1.000000e+00  (FREE)  -1  Starting Heads Layer 31
 -3.000000e+01
INTERNAL  1.000000e+00  (FREE)  -1  Starting Heads Layer 32
 -3.100000e+01
INTERNAL  1.000000e+00  (FREE)  -1  Starting Heads Layer 33
 -3.200000e+01
INTERNAL  1.000000e+00  (FREE)  -1  Starting Heads Layer 34
 -3.300000e+01
INTERNAL  1.000000e+00  (FREE)  -1  Starting Heads Layer 35
 -3.400000e+01
INTERNAL  1.000000e+00  (FREE)  -1  Starting Heads Layer 36
 -3.500000e+01
INTERNAL  1.000000e+00  (FREE)  -1  Starting Heads Layer 37
 -3.600000e+01
INTERNAL  1.000000e+00  (FREE)  -1  Starting Heads Layer 38
 -3.700000e+01
INTERNAL  1.000000e+00  (FREE)  -1  Starting Heads Layer 39
 -3.800000e+01
INTERNAL  1.000000e+00  (FREE)  -1  Starting Heads Layer 40
 -3.900000e+01
INTERNAL  1.000000e+00  (FREE)  -1  Starting Heads Layer 41
 -4.000000e+01
INTERNAL  1.000000e+00  (FREE)  -1  Starting Heads Layer 42
 -4.100000e+01
INTERNAL  1.000000e+00  (FREE)  -1  Starting Heads Layer 43
 -4.200000e+01
INTERNAL  1.000000e+00  (FREE)  -1  Starting Heads Layer 44
 -4.300000e+01
INTERNAL  1.000000e+00  (FREE)  -1  Starting Heads Layer 45
 -4.400000e+01
INTERNAL  1.000000e+00  (FREE)  -1  Starting Heads Layer 46
 -4.500000e+01
INTERNAL  1.000000e+00  (FREE)  -1  Starting Heads Layer 47
 -4.600000e+01
INTERNAL  1.000000e+00  (FREE)  -1  Starting Heads Layer 48
 -4.700000e+01
INTERNAL  1.000000e+00  (FREE)  -1  Starting Heads Layer 49
 -4.800000e+01
INTERNAL  1.000000e+00  (FREE)  -1  Starting Heads Layer 50
 -4.900000e+01
INTERNAL  1.000000e+00  (FREE)  -1  Starting Heads Layer 51
 -5.000000e+01
INTERNAL  1.000000e+00  (FREE)  -1  Starting Heads Layer 52
 -5.100000e+01
INTERNAL  1.000000e+00  (FREE)  -1  Starting Heads Layer 53
 -5.200000e+01
INTERNAL  1.000000e+00  (FREE)  -1  Starting Heads Layer 54
 -5.300000e+01
INTERNAL  1.000000e+00  (FREE)  -1  Starting Heads Layer 55
 -5.400000e+01
INTERNAL  1.000000e+00  (FREE)  -1  Starting Heads Layer 56
 -5.500000e+01
INTERNAL  1.000000e+00  (FREE)  -1  Starting Heads Layer 57
 -5.600000e+01
INTERNAL  1.000000e+00  (FREE)  -1  Starting Heads Layer 58
 -5.700000e+01
INTERNAL  1.000000e+00  (FREE)  -1  Starting Heads Layer 59
 -5.800000e+01
INTERNAL  1.000000e+00  (FREE)  -1  Starting Heads Layer 60
 -5.900000e+01
INTERNAL  1.000000e+00  (FREE)  -1  Starting Heads Layer 61
 -6.000000e+01
INTERNAL  1.000000e+00  (FREE)  -1  Starting Heads Layer 62
 -6.100000e+01
INTERNAL  1.000000e+00  (FREE)  -1  Starting Heads Layer 63
 -6.200000e+01
INTERNAL  1.000000e+00  (FREE)  -1  Starting Heads Layer 64
 -6.300000e+01
INTERNAL  1.000000e+00  (FREE)  -1  Starting Heads Layer 65
 -6.400000e+01
INTERNAL  1.000000e+00  (FREE)  -1  Starting Heads Layer 66
 -6.500000e+01
INTERNAL  1.000000e+00  (FREE)  -1  Starting Heads Layer 67
 -6.600000e+01
INTERNAL  1.000000e+00  (FREE)  -1  Starting Heads Layer 68
 -6.700000e+01
INTERNAL  1.000000e+00  (FREE)  -1  Starting Heads Layer 69
 -6.800000e+01
INTERNAL  1.000000e+00  (FREE)  -1  Starting Heads Layer 70
 -6.900000e+01
INTERNAL  1.000000e+00  (FREE)  -1  Starting Heads Layer 71
 -7.000000e+01
INTERNAL  1.000000e+00  (FREE)  -1  Starting Heads Layer 72
 -7.100000e+01
INTERNAL  1.000000e+00  (FREE)  -1  Starting Heads Layer 73
 -7.200000e+01
INTERNAL  1.000000e+00  (FREE)  -1  Starting Heads Layer 74
 -7.300000e+01
INTERNAL  1.000000e+00  (FREE)  -1  Starting Heads Layer 75
 -7.400000e+01
INTERNAL  1.000000e+00  (FREE)  -1  Starting Heads Layer 76
 -7.500000e+01
INTERNAL  1.000000e+00  (FREE)  -1  Starting Heads Layer 77
 -7.600000e+01
INTERNAL  1.000000e+00  (FREE)  -1  Starting Heads Layer 78
 -7.700000e+01
INTERNAL  1.000000e+00  (FREE)  -1  Starting Heads Layer 79
 -7.800000e+01
INTERNAL  1.000000e+00  (FREE)  -1  Starting Heads Layer 80
 -7.900000e+01
INTERNAL  1.000000e+00  (FREE)  -1  Starting Heads Layer 81
 -8.000000e+01
INTERNAL  1.000000e+00  (FREE)  -1  Starting Heads Layer 82
 -8.100000e+01
INTERNAL  1.000000e+00  (FREE)  -1  Starting Heads Layer 83
 -8.200000e+01
INTERNAL  1.000000e+00  (FREE)  -1  Starting Heads Layer 84
 -8.300000e+01
INTERNAL  1.000000e+00  (FREE)  -1  Starting Heads Layer 85
 -8.400000e+01
INTERNAL  1.000000e+00  (FREE)  -1  Starting Heads Layer 86
 -8.500000e+01
INTERNAL  1.000000e+00  (FREE)  -1  Starting Heads Layer 87
 -8.600000e+01
INTERNAL  1.000000e+00  (FREE)  -1  Starting Heads Layer 88
 -8.700000e+01
INTERNAL  1.000000e+00  (FREE)  -1  Starting Heads Layer 89
 -8.800000e+01
INTERNAL  1.000000e+00  (FREE)  -1  Starting Heads Layer 90
 -8.900000e+01
INTERNAL  1.000000e+00  (FREE)  -1  Starting Heads Layer 91
 -9.000000e+01
INTERNAL  1.000000e+00  (FREE)  -1  Starting Heads Layer 92
 -9.100000e+01
INTERNAL  1.000000e+00  (FREE)  -1  Starting Heads Layer 93
 -9.200000e+01
INTERNAL  1.000000e+00  (FREE)  -1  Starting Heads Layer 94
 -9.300000e+01
INTERNAL  1.000000e+00  (FREE)  -1  Starting Heads Layer 95
 -9.400000e+01
INTERNAL  1.000000e+00  (FREE)  -1  Starting Heads Layer 96
 -9.500000e+01
INTERNAL  1.000000e+00  (FREE)  -1  Starting Heads Layer 97
 -9.600000e+01
INTERNAL  1.000000e+00  (FREE)  -1  Starting Heads Layer 98
 -9.700000e+01
INTERNAL  1.000000e+00  (FREE)  -1  Starting Heads Layer 99
 -9.800000e+01
INTERNAL  1.000000e+00  (FREE)  -1  Starting Heads Layer 100
 -9.900000e+01
INTERNAL  1.000000e+00  (FREE)  -1  Starting Heads Layer 101
 -1.000000e+02
