# MODFLOW-USG Layer Property Flow (LPF) Package
 50 -1.000000e+30 0 0      CONSTANTCV NOVFC
 4 4 4 4 4 4 4 4 4 4 4 4 4 4 4 4 4 4 4 4 4 4 4 4 4 4 4 4 4 4 4 4 4 4 4 4 4 4 4 4 4 4 4 4 4 4 4 4 4 4
 4 4 4 4 4 4 4 4 4 4 4 4 4 4 4 4 4 4 4 4 4 4 4 4 4 4 4 4 4 4 4 4 4 4 4 4 4 4 4 4 4 4 4 4 4 4 4 4 4 4
 4
 0 0 0 0 0 0 0 0 0 0 0 0 0 0 0 0 0 0 0 0 0 0 0 0 0 0 0 0 0 0 0 0 0 0 0 0 0 0 0 0 0 0 0 0 0 0 0 0 0 0
 0 0 0 0 0 0 0 0 0 0 0 0 0 0 0 0 0 0 0 0 0 0 0 0 0 0 0 0 0 0 0 0 0 0 0 0 0 0 0 0 0 0 0 0 0 0 0 0 0 0
 0
 1.000000e+00
 1.000000e+00
 1.000000e+00
 1.000000e+00
 1.000000e+00
 1.000000e+00
 1.000000e+00
 1.000000e+00
 1.000000e+00
 1.000000e+00
 1.000000e+00
 1.000000e+00
 1.000000e+00
 1.000000e+00
 1.000000e+00
 1.000000e+00
 1.000000e+00
 1.000000e+00
 1.000000e+00
 1.000000e+00 1.000000e+00
 1.000000e+00
 1.000000e+00
 1.000000e+00
 1.000000e+00
 1.000000e+00
 1.000000e+00
 1.000000e+00
 1.000000e+00
 1.000000e+00
 1.000000e+00
 1.000000e+00
 1.000000e+00
 1.000000e+00
 1.000000e+00
 1.000000e+00
 1.000000e+00
 1.000000e+00
 1.000000e+00
 1.000000e+00 1.000000e+00
 1.000000e+00
 1.000000e+00
 1.000000e+00
 1.000000e+00
 1.000000e+00
 1.000000e+00
 1.000000e+00
 1.000000e+00
 1.000000e+00
 1.000000e+00
 1.000000e+00
 1.000000e+00
 1.000000e+00
 1.000000e+00
 1.000000e+00
 1.000000e+00
 1.000000e+00
 1.000000e+00
 1.000000e+00 1.000000e+00
 1.000000e+00
 1.000000e+00
 1.000000e+00
 1.000000e+00
 1.000000e+00
 1.000000e+00
 1.000000e+00
 1.000000e+00
 1.000000e+00
 1.000000e+00
 1.000000e+00
 1.000000e+00
 1.000000e+00
 1.000000e+00
 1.000000e+00
 1.000000e+00
 1.000000e+00
 1.000000e+00
 1.000000e+00 1.000000e+00
 1.000000e+00
 1.000000e+00
 1.000000e+00
 1.000000e+00
 1.000000e+00
 1.000000e+00
 1.000000e+00
 1.000000e+00
 1.000000e+00
 1.000000e+00
 1.000000e+00
 1.000000e+00
 1.000000e+00
 1.000000e+00
 1.000000e+00
 1.000000e+00
 1.000000e+00
 1.000000e+00
 1.000000e+00 1.000000e+00
 0 0 0 0 0 0 0 0 0 0 0 0 0 0 0 0 0 0 0 0 0 0 0 0 0 0 0 0 0 0 0 0 0 0 0 0 0 0 0 0 0 0 0 0 0 0 0 0 0 0
 0 0 0 0 0 0 0 0 0 0 0 0 0 0 0 0 0 0 0 0 0 0 0 0 0 0 0 0 0 0 0 0 0 0 0 0 0 0 0 0 0 0 0 0 0 0 0 0 0 0
 0
 0 0 0 0 0 0 0 0 0 0 0 0 0 0 0 0 0 0 0 0 0 0 0 0 0 0 0 0 0 0 0 0 0 0 0 0 0 0 0 0 0 0 0 0 0 0 0 0 0 0
 0 0 0 0 0 0 0 0 0 0 0 0 0 0 0 0 0 0 0 0 0 0 0 0 0 0 0 0 0 0 0 0 0 0 0 0 0 0 0 0 0 0 0 0 0 0 0 0 0 0
 0
INTERNAL  1.000000e+00  (FREE)  -1  Kx Layer 1
 1.000000e+01
INTERNAL  1.000000e+00  (FREE)  -1  Kz Layer 1
 1.000000e+01
INTERNAL  1.000000e+00  (FREE)  -1  Ss Layer 1
 1.000000e-07
INTERNAL  1.000000e+00  (FREE)  -1  Sy Layer 1
 4.300000e-01
INTERNAL  1.000000e+00  (FREE)  -1  Alpha Layer 1
 3.600000e-02
INTERNAL  1.000000e+00  (FREE)  -1  Beta Layer 1
 1.560000e+00
INTERNAL  1.000000e+00  (FREE)  -1  SR Layer 1
 1.814000e-01
INTERNAL  1.000000e+00  (FREE)  -1  BROOKS Layer 1
 6.571400e+00
INTERNAL  1.000000e+00  (FREE)  -1  Kx Layer 2
 1.000000e+01
INTERNAL  1.000000e+00  (FREE)  -1  Kz Layer 2
 1.000000e+01
INTERNAL  1.000000e+00  (FREE)  -1  Ss Layer 2
 1.000000e-07
INTERNAL  1.000000e+00  (FREE)  -1  Sy Layer 2
 4.300000e-01
INTERNAL  1.000000e+00  (FREE)  -1  Alpha Layer 2
 3.600000e-02
INTERNAL  1.000000e+00  (FREE)  -1  Beta Layer 2
 1.560000e+00
INTERNAL  1.000000e+00  (FREE)  -1  SR Layer 2
 1.814000e-01
INTERNAL  1.000000e+00  (FREE)  -1  BROOKS Layer 2
 6.571400e+00
INTERNAL  1.000000e+00  (FREE)  -1  Kx Layer 3
 1.000000e+01
INTERNAL  1.000000e+00  (FREE)  -1  Kz Layer 3
 1.000000e+01
INTERNAL  1.000000e+00  (FREE)  -1  Ss Layer 3
 1.000000e-07
INTERNAL  1.000000e+00  (FREE)  -1  Sy Layer 3
 4.300000e-01
INTERNAL  1.000000e+00  (FREE)  -1  Alpha Layer 3
 3.600000e-02
INTERNAL  1.000000e+00  (FREE)  -1  Beta Layer 3
 1.560000e+00
INTERNAL  1.000000e+00  (FREE)  -1  SR Layer 3
 1.814000e-01
INTERNAL  1.000000e+00  (FREE)  -1  BROOKS Layer 3
 6.571400e+00
INTERNAL  1.000000e+00  (FREE)  -1  Kx Layer 4
 1.000000e+01
INTERNAL  1.000000e+00  (FREE)  -1  Kz Layer 4
 1.000000e+01
INTERNAL  1.000000e+00  (FREE)  -1  Ss Layer 4
 1.000000e-07
INTERNAL  1.000000e+00  (FREE)  -1  Sy Layer 4
 4.300000e-01
INTERNAL  1.000000e+00  (FREE)  -1  Alpha Layer 4
 3.600000e-02
INTERNAL  1.000000e+00  (FREE)  -1  Beta Layer 4
 1.560000e+00
INTERNAL  1.000000e+00  (FREE)  -1  SR Layer 4
 1.814000e-01
INTERNAL  1.000000e+00  (FREE)  -1  BROOKS Layer 4
 6.571400e+00
INTERNAL  1.000000e+00  (FREE)  -1  Kx Layer 5
 1.000000e+01
INTERNAL  1.000000e+00  (FREE)  -1  Kz Layer 5
 1.000000e+01
INTERNAL  1.000000e+00  (FREE)  -1  Ss Layer 5
 1.000000e-07
INTERNAL  1.000000e+00  (FREE)  -1  Sy Layer 5
 4.300000e-01
INTERNAL  1.000000e+00  (FREE)  -1  Alpha Layer 5
 3.600000e-02
INTERNAL  1.000000e+00  (FREE)  -1  Beta Layer 5
 1.560000e+00
INTERNAL  1.000000e+00  (FREE)  -1  SR Layer 5
 1.814000e-01
INTERNAL  1.000000e+00  (FREE)  -1  BROOKS Layer 5
 6.571400e+00
INTERNAL  1.000000e+00  (FREE)  -1  Kx Layer 6
 1.000000e+01
INTERNAL  1.000000e+00  (FREE)  -1  Kz Layer 6
 1.000000e+01
INTERNAL  1.000000e+00  (FREE)  -1  Ss Layer 6
 1.000000e-07
INTERNAL  1.000000e+00  (FREE)  -1  Sy Layer 6
 4.300000e-01
INTERNAL  1.000000e+00  (FREE)  -1  Alpha Layer 6
 3.600000e-02
INTERNAL  1.000000e+00  (FREE)  -1  Beta Layer 6
 1.560000e+00
INTERNAL  1.000000e+00  (FREE)  -1  SR Layer 6
 1.814000e-01
INTERNAL  1.000000e+00  (FREE)  -1  BROOKS Layer 6
 6.571400e+00
INTERNAL  1.000000e+00  (FREE)  -1  Kx Layer 7
 1.000000e+01
INTERNAL  1.000000e+00  (FREE)  -1  Kz Layer 7
 1.000000e+01
INTERNAL  1.000000e+00  (FREE)  -1  Ss Layer 7
 1.000000e-07
INTERNAL  1.000000e+00  (FREE)  -1  Sy Layer 7
 4.300000e-01
INTERNAL  1.000000e+00  (FREE)  -1  Alpha Layer 7
 3.600000e-02
INTERNAL  1.000000e+00  (FREE)  -1  Beta Layer 7
 1.560000e+00
INTERNAL  1.000000e+00  (FREE)  -1  SR Layer 7
 1.814000e-01
INTERNAL  1.000000e+00  (FREE)  -1  BROOKS Layer 7
 6.571400e+00
INTERNAL  1.000000e+00  (FREE)  -1  Kx Layer 8
 1.000000e+01
INTERNAL  1.000000e+00  (FREE)  -1  Kz Layer 8
 1.000000e+01
INTERNAL  1.000000e+00  (FREE)  -1  Ss Layer 8
 1.000000e-07
INTERNAL  1.000000e+00  (FREE)  -1  Sy Layer 8
 4.300000e-01
INTERNAL  1.000000e+00  (FREE)  -1  Alpha Layer 8
 3.600000e-02
INTERNAL  1.000000e+00  (FREE)  -1  Beta Layer 8
 1.560000e+00
INTERNAL  1.000000e+00  (FREE)  -1  SR Layer 8
 1.814000e-01
INTERNAL  1.000000e+00  (FREE)  -1  BROOKS Layer 8
 6.571400e+00
INTERNAL  1.000000e+00  (FREE)  -1  Kx Layer 9
 1.000000e+01
INTERNAL  1.000000e+00  (FREE)  -1  Kz Layer 9
 1.000000e+01
INTERNAL  1.000000e+00  (FREE)  -1  Ss Layer 9
 1.000000e-07
INTERNAL  1.000000e+00  (FREE)  -1  Sy Layer 9
 4.300000e-01
INTERNAL  1.000000e+00  (FREE)  -1  Alpha Layer 9
 3.600000e-02
INTERNAL  1.000000e+00  (FREE)  -1  Beta Layer 9
 1.560000e+00
INTERNAL  1.000000e+00  (FREE)  -1  SR Layer 9
 1.814000e-01
INTERNAL  1.000000e+00  (FREE)  -1  BROOKS Layer 9
 6.571400e+00
INTERNAL  1.000000e+00  (FREE)  -1  Kx Layer 10
 1.000000e+01
INTERNAL  1.000000e+00  (FREE)  -1  Kz Layer 10
 1.000000e+01
INTERNAL  1.000000e+00  (FREE)  -1  Ss Layer 10
 1.000000e-07
INTERNAL  1.000000e+00  (FREE)  -1  Sy Layer 10
 4.300000e-01
INTERNAL  1.000000e+00  (FREE)  -1  Alpha Layer 10
 3.600000e-02
INTERNAL  1.000000e+00  (FREE)  -1  Beta Layer 10
 1.560000e+00
INTERNAL  1.000000e+00  (FREE)  -1  SR Layer 10
 1.814000e-01
INTERNAL  1.000000e+00  (FREE)  -1  BROOKS Layer 10
 6.571400e+00
INTERNAL  1.000000e+00  (FREE)  -1  Kx Layer 11
 1.000000e+01
INTERNAL  1.000000e+00  (FREE)  -1  Kz Layer 11
 1.000000e+01
INTERNAL  1.000000e+00  (FREE)  -1  Ss Layer 11
 1.000000e-07
INTERNAL  1.000000e+00  (FREE)  -1  Sy Layer 11
 4.300000e-01
INTERNAL  1.000000e+00  (FREE)  -1  Alpha Layer 11
 3.600000e-02
INTERNAL  1.000000e+00  (FREE)  -1  Beta Layer 11
 1.560000e+00
INTERNAL  1.000000e+00  (FREE)  -1  SR Layer 11
 1.814000e-01
INTERNAL  1.000000e+00  (FREE)  -1  BROOKS Layer 11
 6.571400e+00
INTERNAL  1.000000e+00  (FREE)  -1  Kx Layer 12
 1.000000e+01
INTERNAL  1.000000e+00  (FREE)  -1  Kz Layer 12
 1.000000e+01
INTERNAL  1.000000e+00  (FREE)  -1  Ss Layer 12
 1.000000e-07
INTERNAL  1.000000e+00  (FREE)  -1  Sy Layer 12
 4.300000e-01
INTERNAL  1.000000e+00  (FREE)  -1  Alpha Layer 12
 3.600000e-02
INTERNAL  1.000000e+00  (FREE)  -1  Beta Layer 12
 1.560000e+00
INTERNAL  1.000000e+00  (FREE)  -1  SR Layer 12
 1.814000e-01
INTERNAL  1.000000e+00  (FREE)  -1  BROOKS Layer 12
 6.571400e+00
INTERNAL  1.000000e+00  (FREE)  -1  Kx Layer 13
 1.000000e+01
INTERNAL  1.000000e+00  (FREE)  -1  Kz Layer 13
 1.000000e+01
INTERNAL  1.000000e+00  (FREE)  -1  Ss Layer 13
 1.000000e-07
INTERNAL  1.000000e+00  (FREE)  -1  Sy Layer 13
 4.300000e-01
INTERNAL  1.000000e+00  (FREE)  -1  Alpha Layer 13
 3.600000e-02
INTERNAL  1.000000e+00  (FREE)  -1  Beta Layer 13
 1.560000e+00
INTERNAL  1.000000e+00  (FREE)  -1  SR Layer 13
 1.814000e-01
INTERNAL  1.000000e+00  (FREE)  -1  BROOKS Layer 13
 6.571400e+00
INTERNAL  1.000000e+00  (FREE)  -1  Kx Layer 14
 1.000000e+01
INTERNAL  1.000000e+00  (FREE)  -1  Kz Layer 14
 1.000000e+01
INTERNAL  1.000000e+00  (FREE)  -1  Ss Layer 14
 1.000000e-07
INTERNAL  1.000000e+00  (FREE)  -1  Sy Layer 14
 4.300000e-01
INTERNAL  1.000000e+00  (FREE)  -1  Alpha Layer 14
 3.600000e-02
INTERNAL  1.000000e+00  (FREE)  -1  Beta Layer 14
 1.560000e+00
INTERNAL  1.000000e+00  (FREE)  -1  SR Layer 14
 1.814000e-01
INTERNAL  1.000000e+00  (FREE)  -1  BROOKS Layer 14
 6.571400e+00
INTERNAL  1.000000e+00  (FREE)  -1  Kx Layer 15
 1.000000e+01
INTERNAL  1.000000e+00  (FREE)  -1  Kz Layer 15
 1.000000e+01
INTERNAL  1.000000e+00  (FREE)  -1  Ss Layer 15
 1.000000e-07
INTERNAL  1.000000e+00  (FREE)  -1  Sy Layer 15
 4.300000e-01
INTERNAL  1.000000e+00  (FREE)  -1  Alpha Layer 15
 3.600000e-02
INTERNAL  1.000000e+00  (FREE)  -1  Beta Layer 15
 1.560000e+00
INTERNAL  1.000000e+00  (FREE)  -1  SR Layer 15
 1.814000e-01
INTERNAL  1.000000e+00  (FREE)  -1  BROOKS Layer 15
 6.571400e+00
INTERNAL  1.000000e+00  (FREE)  -1  Kx Layer 16
 1.000000e+01
INTERNAL  1.000000e+00  (FREE)  -1  Kz Layer 16
 1.000000e+01
INTERNAL  1.000000e+00  (FREE)  -1  Ss Layer 16
 1.000000e-07
INTERNAL  1.000000e+00  (FREE)  -1  Sy Layer 16
 4.300000e-01
INTERNAL  1.000000e+00  (FREE)  -1  Alpha Layer 16
 3.600000e-02
INTERNAL  1.000000e+00  (FREE)  -1  Beta Layer 16
 1.560000e+00
INTERNAL  1.000000e+00  (FREE)  -1  SR Layer 16
 1.814000e-01
INTERNAL  1.000000e+00  (FREE)  -1  BROOKS Layer 16
 6.571400e+00
INTERNAL  1.000000e+00  (FREE)  -1  Kx Layer 17
 1.000000e+01
INTERNAL  1.000000e+00  (FREE)  -1  Kz Layer 17
 1.000000e+01
INTERNAL  1.000000e+00  (FREE)  -1  Ss Layer 17
 1.000000e-07
INTERNAL  1.000000e+00  (FREE)  -1  Sy Layer 17
 4.300000e-01
INTERNAL  1.000000e+00  (FREE)  -1  Alpha Layer 17
 3.600000e-02
INTERNAL  1.000000e+00  (FREE)  -1  Beta Layer 17
 1.560000e+00
INTERNAL  1.000000e+00  (FREE)  -1  SR Layer 17
 1.814000e-01
INTERNAL  1.000000e+00  (FREE)  -1  BROOKS Layer 17
 6.571400e+00
INTERNAL  1.000000e+00  (FREE)  -1  Kx Layer 18
 1.000000e+01
INTERNAL  1.000000e+00  (FREE)  -1  Kz Layer 18
 1.000000e+01
INTERNAL  1.000000e+00  (FREE)  -1  Ss Layer 18
 1.000000e-07
INTERNAL  1.000000e+00  (FREE)  -1  Sy Layer 18
 4.300000e-01
INTERNAL  1.000000e+00  (FREE)  -1  Alpha Layer 18
 3.600000e-02
INTERNAL  1.000000e+00  (FREE)  -1  Beta Layer 18
 1.560000e+00
INTERNAL  1.000000e+00  (FREE)  -1  SR Layer 18
 1.814000e-01
INTERNAL  1.000000e+00  (FREE)  -1  BROOKS Layer 18
 6.571400e+00
INTERNAL  1.000000e+00  (FREE)  -1  Kx Layer 19
 1.000000e+01
INTERNAL  1.000000e+00  (FREE)  -1  Kz Layer 19
 1.000000e+01
INTERNAL  1.000000e+00  (FREE)  -1  Ss Layer 19
 1.000000e-07
INTERNAL  1.000000e+00  (FREE)  -1  Sy Layer 19
 4.300000e-01
INTERNAL  1.000000e+00  (FREE)  -1  Alpha Layer 19
 3.600000e-02
INTERNAL  1.000000e+00  (FREE)  -1  Beta Layer 19
 1.560000e+00
INTERNAL  1.000000e+00  (FREE)  -1  SR Layer 19
 1.814000e-01
INTERNAL  1.000000e+00  (FREE)  -1  BROOKS Layer 19
 6.571400e+00
INTERNAL  1.000000e+00  (FREE)  -1  Kx Layer 20
 1.000000e+01
INTERNAL  1.000000e+00  (FREE)  -1  Kz Layer 20
 1.000000e+01
INTERNAL  1.000000e+00  (FREE)  -1  Ss Layer 20
 1.000000e-07
INTERNAL  1.000000e+00  (FREE)  -1  Sy Layer 20
 4.300000e-01
INTERNAL  1.000000e+00  (FREE)  -1  Alpha Layer 20
 3.600000e-02
INTERNAL  1.000000e+00  (FREE)  -1  Beta Layer 20
 1.560000e+00
INTERNAL  1.000000e+00  (FREE)  -1  SR Layer 20
 1.814000e-01
INTERNAL  1.000000e+00  (FREE)  -1  BROOKS Layer 20
 6.571400e+00
INTERNAL  1.000000e+00  (FREE)  -1  Kx Layer 21
 1.000000e+01
INTERNAL  1.000000e+00  (FREE)  -1  Kz Layer 21
 1.000000e+01
INTERNAL  1.000000e+00  (FREE)  -1  Ss Layer 21
 1.000000e-07
INTERNAL  1.000000e+00  (FREE)  -1  Sy Layer 21
 4.300000e-01
INTERNAL  1.000000e+00  (FREE)  -1  Alpha Layer 21
 3.600000e-02
INTERNAL  1.000000e+00  (FREE)  -1  Beta Layer 21
 1.560000e+00
INTERNAL  1.000000e+00  (FREE)  -1  SR Layer 21
 1.814000e-01
INTERNAL  1.000000e+00  (FREE)  -1  BROOKS Layer 21
 6.571400e+00
INTERNAL  1.000000e+00  (FREE)  -1  Kx Layer 22
 1.000000e+01
INTERNAL  1.000000e+00  (FREE)  -1  Kz Layer 22
 1.000000e+01
INTERNAL  1.000000e+00  (FREE)  -1  Ss Layer 22
 1.000000e-07
INTERNAL  1.000000e+00  (FREE)  -1  Sy Layer 22
 4.300000e-01
INTERNAL  1.000000e+00  (FREE)  -1  Alpha Layer 22
 3.600000e-02
INTERNAL  1.000000e+00  (FREE)  -1  Beta Layer 22
 1.560000e+00
INTERNAL  1.000000e+00  (FREE)  -1  SR Layer 22
 1.814000e-01
INTERNAL  1.000000e+00  (FREE)  -1  BROOKS Layer 22
 6.571400e+00
INTERNAL  1.000000e+00  (FREE)  -1  Kx Layer 23
 1.000000e+01
INTERNAL  1.000000e+00  (FREE)  -1  Kz Layer 23
 1.000000e+01
INTERNAL  1.000000e+00  (FREE)  -1  Ss Layer 23
 1.000000e-07
INTERNAL  1.000000e+00  (FREE)  -1  Sy Layer 23
 4.300000e-01
INTERNAL  1.000000e+00  (FREE)  -1  Alpha Layer 23
 3.600000e-02
INTERNAL  1.000000e+00  (FREE)  -1  Beta Layer 23
 1.560000e+00
INTERNAL  1.000000e+00  (FREE)  -1  SR Layer 23
 1.814000e-01
INTERNAL  1.000000e+00  (FREE)  -1  BROOKS Layer 23
 6.571400e+00
INTERNAL  1.000000e+00  (FREE)  -1  Kx Layer 24
 1.000000e+01
INTERNAL  1.000000e+00  (FREE)  -1  Kz Layer 24
 1.000000e+01
INTERNAL  1.000000e+00  (FREE)  -1  Ss Layer 24
 1.000000e-07
INTERNAL  1.000000e+00  (FREE)  -1  Sy Layer 24
 4.300000e-01
INTERNAL  1.000000e+00  (FREE)  -1  Alpha Layer 24
 3.600000e-02
INTERNAL  1.000000e+00  (FREE)  -1  Beta Layer 24
 1.560000e+00
INTERNAL  1.000000e+00  (FREE)  -1  SR Layer 24
 1.814000e-01
INTERNAL  1.000000e+00  (FREE)  -1  BROOKS Layer 24
 6.571400e+00
INTERNAL  1.000000e+00  (FREE)  -1  Kx Layer 25
 1.000000e+01
INTERNAL  1.000000e+00  (FREE)  -1  Kz Layer 25
 1.000000e+01
INTERNAL  1.000000e+00  (FREE)  -1  Ss Layer 25
 1.000000e-07
INTERNAL  1.000000e+00  (FREE)  -1  Sy Layer 25
 4.300000e-01
INTERNAL  1.000000e+00  (FREE)  -1  Alpha Layer 25
 3.600000e-02
INTERNAL  1.000000e+00  (FREE)  -1  Beta Layer 25
 1.560000e+00
INTERNAL  1.000000e+00  (FREE)  -1  SR Layer 25
 1.814000e-01
INTERNAL  1.000000e+00  (FREE)  -1  BROOKS Layer 25
 6.571400e+00
INTERNAL  1.000000e+00  (FREE)  -1  Kx Layer 26
 1.000000e+01
INTERNAL  1.000000e+00  (FREE)  -1  Kz Layer 26
 1.000000e+01
INTERNAL  1.000000e+00  (FREE)  -1  Ss Layer 26
 1.000000e-07
INTERNAL  1.000000e+00  (FREE)  -1  Sy Layer 26
 4.300000e-01
INTERNAL  1.000000e+00  (FREE)  -1  Alpha Layer 26
 3.600000e-02
INTERNAL  1.000000e+00  (FREE)  -1  Beta Layer 26
 1.560000e+00
INTERNAL  1.000000e+00  (FREE)  -1  SR Layer 26
 1.814000e-01
INTERNAL  1.000000e+00  (FREE)  -1  BROOKS Layer 26
 6.571400e+00
INTERNAL  1.000000e+00  (FREE)  -1  Kx Layer 27
 1.000000e+01
INTERNAL  1.000000e+00  (FREE)  -1  Kz Layer 27
 1.000000e+01
INTERNAL  1.000000e+00  (FREE)  -1  Ss Layer 27
 1.000000e-07
INTERNAL  1.000000e+00  (FREE)  -1  Sy Layer 27
 4.300000e-01
INTERNAL  1.000000e+00  (FREE)  -1  Alpha Layer 27
 3.600000e-02
INTERNAL  1.000000e+00  (FREE)  -1  Beta Layer 27
 1.560000e+00
INTERNAL  1.000000e+00  (FREE)  -1  SR Layer 27
 1.814000e-01
INTERNAL  1.000000e+00  (FREE)  -1  BROOKS Layer 27
 6.571400e+00
INTERNAL  1.000000e+00  (FREE)  -1  Kx Layer 28
 1.000000e+01
INTERNAL  1.000000e+00  (FREE)  -1  Kz Layer 28
 1.000000e+01
INTERNAL  1.000000e+00  (FREE)  -1  Ss Layer 28
 1.000000e-07
INTERNAL  1.000000e+00  (FREE)  -1  Sy Layer 28
 4.300000e-01
INTERNAL  1.000000e+00  (FREE)  -1  Alpha Layer 28
 3.600000e-02
INTERNAL  1.000000e+00  (FREE)  -1  Beta Layer 28
 1.560000e+00
INTERNAL  1.000000e+00  (FREE)  -1  SR Layer 28
 1.814000e-01
INTERNAL  1.000000e+00  (FREE)  -1  BROOKS Layer 28
 6.571400e+00
INTERNAL  1.000000e+00  (FREE)  -1  Kx Layer 29
 1.000000e+01
INTERNAL  1.000000e+00  (FREE)  -1  Kz Layer 29
 1.000000e+01
INTERNAL  1.000000e+00  (FREE)  -1  Ss Layer 29
 1.000000e-07
INTERNAL  1.000000e+00  (FREE)  -1  Sy Layer 29
 4.300000e-01
INTERNAL  1.000000e+00  (FREE)  -1  Alpha Layer 29
 3.600000e-02
INTERNAL  1.000000e+00  (FREE)  -1  Beta Layer 29
 1.560000e+00
INTERNAL  1.000000e+00  (FREE)  -1  SR Layer 29
 1.814000e-01
INTERNAL  1.000000e+00  (FREE)  -1  BROOKS Layer 29
 6.571400e+00
INTERNAL  1.000000e+00  (FREE)  -1  Kx Layer 30
 1.000000e+01
INTERNAL  1.000000e+00  (FREE)  -1  Kz Layer 30
 1.000000e+01
INTERNAL  1.000000e+00  (FREE)  -1  Ss Layer 30
 1.000000e-07
INTERNAL  1.000000e+00  (FREE)  -1  Sy Layer 30
 4.300000e-01
INTERNAL  1.000000e+00  (FREE)  -1  Alpha Layer 30
 3.600000e-02
INTERNAL  1.000000e+00  (FREE)  -1  Beta Layer 30
 1.560000e+00
INTERNAL  1.000000e+00  (FREE)  -1  SR Layer 30
 1.814000e-01
INTERNAL  1.000000e+00  (FREE)  -1  BROOKS Layer 30
 6.571400e+00
INTERNAL  1.000000e+00  (FREE)  -1  Kx Layer 31
 1.000000e+01
INTERNAL  1.000000e+00  (FREE)  -1  Kz Layer 31
 1.000000e+01
INTERNAL  1.000000e+00  (FREE)  -1  Ss Layer 31
 1.000000e-07
INTERNAL  1.000000e+00  (FREE)  -1  Sy Layer 31
 4.300000e-01
INTERNAL  1.000000e+00  (FREE)  -1  Alpha Layer 31
 3.600000e-02
INTERNAL  1.000000e+00  (FREE)  -1  Beta Layer 31
 1.560000e+00
INTERNAL  1.000000e+00  (FREE)  -1  SR Layer 31
 1.814000e-01
INTERNAL  1.000000e+00  (FREE)  -1  BROOKS Layer 31
 6.571400e+00
INTERNAL  1.000000e+00  (FREE)  -1  Kx Layer 32
 1.000000e+01
INTERNAL  1.000000e+00  (FREE)  -1  Kz Layer 32
 1.000000e+01
INTERNAL  1.000000e+00  (FREE)  -1  Ss Layer 32
 1.000000e-07
INTERNAL  1.000000e+00  (FREE)  -1  Sy Layer 32
 4.300000e-01
INTERNAL  1.000000e+00  (FREE)  -1  Alpha Layer 32
 3.600000e-02
INTERNAL  1.000000e+00  (FREE)  -1  Beta Layer 32
 1.560000e+00
INTERNAL  1.000000e+00  (FREE)  -1  SR Layer 32
 1.814000e-01
INTERNAL  1.000000e+00  (FREE)  -1  BROOKS Layer 32
 6.571400e+00
INTERNAL  1.000000e+00  (FREE)  -1  Kx Layer 33
 1.000000e+01
INTERNAL  1.000000e+00  (FREE)  -1  Kz Layer 33
 1.000000e+01
INTERNAL  1.000000e+00  (FREE)  -1  Ss Layer 33
 1.000000e-07
INTERNAL  1.000000e+00  (FREE)  -1  Sy Layer 33
 4.300000e-01
INTERNAL  1.000000e+00  (FREE)  -1  Alpha Layer 33
 3.600000e-02
INTERNAL  1.000000e+00  (FREE)  -1  Beta Layer 33
 1.560000e+00
INTERNAL  1.000000e+00  (FREE)  -1  SR Layer 33
 1.814000e-01
INTERNAL  1.000000e+00  (FREE)  -1  BROOKS Layer 33
 6.571400e+00
INTERNAL  1.000000e+00  (FREE)  -1  Kx Layer 34
 1.000000e+01
INTERNAL  1.000000e+00  (FREE)  -1  Kz Layer 34
 1.000000e+01
INTERNAL  1.000000e+00  (FREE)  -1  Ss Layer 34
 1.000000e-07
INTERNAL  1.000000e+00  (FREE)  -1  Sy Layer 34
 4.300000e-01
INTERNAL  1.000000e+00  (FREE)  -1  Alpha Layer 34
 3.600000e-02
INTERNAL  1.000000e+00  (FREE)  -1  Beta Layer 34
 1.560000e+00
INTERNAL  1.000000e+00  (FREE)  -1  SR Layer 34
 1.814000e-01
INTERNAL  1.000000e+00  (FREE)  -1  BROOKS Layer 34
 6.571400e+00
INTERNAL  1.000000e+00  (FREE)  -1  Kx Layer 35
 1.000000e+01
INTERNAL  1.000000e+00  (FREE)  -1  Kz Layer 35
 1.000000e+01
INTERNAL  1.000000e+00  (FREE)  -1  Ss Layer 35
 1.000000e-07
INTERNAL  1.000000e+00  (FREE)  -1  Sy Layer 35
 4.300000e-01
INTERNAL  1.000000e+00  (FREE)  -1  Alpha Layer 35
 3.600000e-02
INTERNAL  1.000000e+00  (FREE)  -1  Beta Layer 35
 1.560000e+00
INTERNAL  1.000000e+00  (FREE)  -1  SR Layer 35
 1.814000e-01
INTERNAL  1.000000e+00  (FREE)  -1  BROOKS Layer 35
 6.571400e+00
INTERNAL  1.000000e+00  (FREE)  -1  Kx Layer 36
 1.000000e+01
INTERNAL  1.000000e+00  (FREE)  -1  Kz Layer 36
 1.000000e+01
INTERNAL  1.000000e+00  (FREE)  -1  Ss Layer 36
 1.000000e-07
INTERNAL  1.000000e+00  (FREE)  -1  Sy Layer 36
 4.300000e-01
INTERNAL  1.000000e+00  (FREE)  -1  Alpha Layer 36
 3.600000e-02
INTERNAL  1.000000e+00  (FREE)  -1  Beta Layer 36
 1.560000e+00
INTERNAL  1.000000e+00  (FREE)  -1  SR Layer 36
 1.814000e-01
INTERNAL  1.000000e+00  (FREE)  -1  BROOKS Layer 36
 6.571400e+00
INTERNAL  1.000000e+00  (FREE)  -1  Kx Layer 37
 1.000000e+01
INTERNAL  1.000000e+00  (FREE)  -1  Kz Layer 37
 1.000000e+01
INTERNAL  1.000000e+00  (FREE)  -1  Ss Layer 37
 1.000000e-07
INTERNAL  1.000000e+00  (FREE)  -1  Sy Layer 37
 4.300000e-01
INTERNAL  1.000000e+00  (FREE)  -1  Alpha Layer 37
 3.600000e-02
INTERNAL  1.000000e+00  (FREE)  -1  Beta Layer 37
 1.560000e+00
INTERNAL  1.000000e+00  (FREE)  -1  SR Layer 37
 1.814000e-01
INTERNAL  1.000000e+00  (FREE)  -1  BROOKS Layer 37
 6.571400e+00
INTERNAL  1.000000e+00  (FREE)  -1  Kx Layer 38
 1.000000e+01
INTERNAL  1.000000e+00  (FREE)  -1  Kz Layer 38
 1.000000e+01
INTERNAL  1.000000e+00  (FREE)  -1  Ss Layer 38
 1.000000e-07
INTERNAL  1.000000e+00  (FREE)  -1  Sy Layer 38
 4.300000e-01
INTERNAL  1.000000e+00  (FREE)  -1  Alpha Layer 38
 3.600000e-02
INTERNAL  1.000000e+00  (FREE)  -1  Beta Layer 38
 1.560000e+00
INTERNAL  1.000000e+00  (FREE)  -1  SR Layer 38
 1.814000e-01
INTERNAL  1.000000e+00  (FREE)  -1  BROOKS Layer 38
 6.571400e+00
INTERNAL  1.000000e+00  (FREE)  -1  Kx Layer 39
 1.000000e+01
INTERNAL  1.000000e+00  (FREE)  -1  Kz Layer 39
 1.000000e+01
INTERNAL  1.000000e+00  (FREE)  -1  Ss Layer 39
 1.000000e-07
INTERNAL  1.000000e+00  (FREE)  -1  Sy Layer 39
 4.300000e-01
INTERNAL  1.000000e+00  (FREE)  -1  Alpha Layer 39
 3.600000e-02
INTERNAL  1.000000e+00  (FREE)  -1  Beta Layer 39
 1.560000e+00
INTERNAL  1.000000e+00  (FREE)  -1  SR Layer 39
 1.814000e-01
INTERNAL  1.000000e+00  (FREE)  -1  BROOKS Layer 39
 6.571400e+00
INTERNAL  1.000000e+00  (FREE)  -1  Kx Layer 40
 1.000000e+01
INTERNAL  1.000000e+00  (FREE)  -1  Kz Layer 40
 1.000000e+01
INTERNAL  1.000000e+00  (FREE)  -1  Ss Layer 40
 1.000000e-07
INTERNAL  1.000000e+00  (FREE)  -1  Sy Layer 40
 4.300000e-01
INTERNAL  1.000000e+00  (FREE)  -1  Alpha Layer 40
 3.600000e-02
INTERNAL  1.000000e+00  (FREE)  -1  Beta Layer 40
 1.560000e+00
INTERNAL  1.000000e+00  (FREE)  -1  SR Layer 40
 1.814000e-01
INTERNAL  1.000000e+00  (FREE)  -1  BROOKS Layer 40
 6.571400e+00
INTERNAL  1.000000e+00  (FREE)  -1  Kx Layer 41
 1.000000e+01
INTERNAL  1.000000e+00  (FREE)  -1  Kz Layer 41
 1.000000e+01
INTERNAL  1.000000e+00  (FREE)  -1  Ss Layer 41
 1.000000e-07
INTERNAL  1.000000e+00  (FREE)  -1  Sy Layer 41
 4.300000e-01
INTERNAL  1.000000e+00  (FREE)  -1  Alpha Layer 41
 3.600000e-02
INTERNAL  1.000000e+00  (FREE)  -1  Beta Layer 41
 1.560000e+00
INTERNAL  1.000000e+00  (FREE)  -1  SR Layer 41
 1.814000e-01
INTERNAL  1.000000e+00  (FREE)  -1  BROOKS Layer 41
 6.571400e+00
INTERNAL  1.000000e+00  (FREE)  -1  Kx Layer 42
 1.000000e+01
INTERNAL  1.000000e+00  (FREE)  -1  Kz Layer 42
 1.000000e+01
INTERNAL  1.000000e+00  (FREE)  -1  Ss Layer 42
 1.000000e-07
INTERNAL  1.000000e+00  (FREE)  -1  Sy Layer 42
 4.300000e-01
INTERNAL  1.000000e+00  (FREE)  -1  Alpha Layer 42
 3.600000e-02
INTERNAL  1.000000e+00  (FREE)  -1  Beta Layer 42
 1.560000e+00
INTERNAL  1.000000e+00  (FREE)  -1  SR Layer 42
 1.814000e-01
INTERNAL  1.000000e+00  (FREE)  -1  BROOKS Layer 42
 6.571400e+00
INTERNAL  1.000000e+00  (FREE)  -1  Kx Layer 43
 1.000000e+01
INTERNAL  1.000000e+00  (FREE)  -1  Kz Layer 43
 1.000000e+01
INTERNAL  1.000000e+00  (FREE)  -1  Ss Layer 43
 1.000000e-07
INTERNAL  1.000000e+00  (FREE)  -1  Sy Layer 43
 4.300000e-01
INTERNAL  1.000000e+00  (FREE)  -1  Alpha Layer 43
 3.600000e-02
INTERNAL  1.000000e+00  (FREE)  -1  Beta Layer 43
 1.560000e+00
INTERNAL  1.000000e+00  (FREE)  -1  SR Layer 43
 1.814000e-01
INTERNAL  1.000000e+00  (FREE)  -1  BROOKS Layer 43
 6.571400e+00
INTERNAL  1.000000e+00  (FREE)  -1  Kx Layer 44
 1.000000e+01
INTERNAL  1.000000e+00  (FREE)  -1  Kz Layer 44
 1.000000e+01
INTERNAL  1.000000e+00  (FREE)  -1  Ss Layer 44
 1.000000e-07
INTERNAL  1.000000e+00  (FREE)  -1  Sy Layer 44
 4.300000e-01
INTERNAL  1.000000e+00  (FREE)  -1  Alpha Layer 44
 3.600000e-02
INTERNAL  1.000000e+00  (FREE)  -1  Beta Layer 44
 1.560000e+00
INTERNAL  1.000000e+00  (FREE)  -1  SR Layer 44
 1.814000e-01
INTERNAL  1.000000e+00  (FREE)  -1  BROOKS Layer 44
 6.571400e+00
INTERNAL  1.000000e+00  (FREE)  -1  Kx Layer 45
 1.000000e+01
INTERNAL  1.000000e+00  (FREE)  -1  Kz Layer 45
 1.000000e+01
INTERNAL  1.000000e+00  (FREE)  -1  Ss Layer 45
 1.000000e-07
INTERNAL  1.000000e+00  (FREE)  -1  Sy Layer 45
 4.300000e-01
INTERNAL  1.000000e+00  (FREE)  -1  Alpha Layer 45
 3.600000e-02
INTERNAL  1.000000e+00  (FREE)  -1  Beta Layer 45
 1.560000e+00
INTERNAL  1.000000e+00  (FREE)  -1  SR Layer 45
 1.814000e-01
INTERNAL  1.000000e+00  (FREE)  -1  BROOKS Layer 45
 6.571400e+00
INTERNAL  1.000000e+00  (FREE)  -1  Kx Layer 46
 1.000000e+01
INTERNAL  1.000000e+00  (FREE)  -1  Kz Layer 46
 1.000000e+01
INTERNAL  1.000000e+00  (FREE)  -1  Ss Layer 46
 1.000000e-07
INTERNAL  1.000000e+00  (FREE)  -1  Sy Layer 46
 4.300000e-01
INTERNAL  1.000000e+00  (FREE)  -1  Alpha Layer 46
 3.600000e-02
INTERNAL  1.000000e+00  (FREE)  -1  Beta Layer 46
 1.560000e+00
INTERNAL  1.000000e+00  (FREE)  -1  SR Layer 46
 1.814000e-01
INTERNAL  1.000000e+00  (FREE)  -1  BROOKS Layer 46
 6.571400e+00
INTERNAL  1.000000e+00  (FREE)  -1  Kx Layer 47
 1.000000e+01
INTERNAL  1.000000e+00  (FREE)  -1  Kz Layer 47
 1.000000e+01
INTERNAL  1.000000e+00  (FREE)  -1  Ss Layer 47
 1.000000e-07
INTERNAL  1.000000e+00  (FREE)  -1  Sy Layer 47
 4.300000e-01
INTERNAL  1.000000e+00  (FREE)  -1  Alpha Layer 47
 3.600000e-02
INTERNAL  1.000000e+00  (FREE)  -1  Beta Layer 47
 1.560000e+00
INTERNAL  1.000000e+00  (FREE)  -1  SR Layer 47
 1.814000e-01
INTERNAL  1.000000e+00  (FREE)  -1  BROOKS Layer 47
 6.571400e+00
INTERNAL  1.000000e+00  (FREE)  -1  Kx Layer 48
 1.000000e+01
INTERNAL  1.000000e+00  (FREE)  -1  Kz Layer 48
 1.000000e+01
INTERNAL  1.000000e+00  (FREE)  -1  Ss Layer 48
 1.000000e-07
INTERNAL  1.000000e+00  (FREE)  -1  Sy Layer 48
 4.300000e-01
INTERNAL  1.000000e+00  (FREE)  -1  Alpha Layer 48
 3.600000e-02
INTERNAL  1.000000e+00  (FREE)  -1  Beta Layer 48
 1.560000e+00
INTERNAL  1.000000e+00  (FREE)  -1  SR Layer 48
 1.814000e-01
INTERNAL  1.000000e+00  (FREE)  -1  BROOKS Layer 48
 6.571400e+00
INTERNAL  1.000000e+00  (FREE)  -1  Kx Layer 49
 1.000000e+01
INTERNAL  1.000000e+00  (FREE)  -1  Kz Layer 49
 1.000000e+01
INTERNAL  1.000000e+00  (FREE)  -1  Ss Layer 49
 1.000000e-07
INTERNAL  1.000000e+00  (FREE)  -1  Sy Layer 49
 4.300000e-01
INTERNAL  1.000000e+00  (FREE)  -1  Alpha Layer 49
 3.600000e-02
INTERNAL  1.000000e+00  (FREE)  -1  Beta Layer 49
 1.560000e+00
INTERNAL  1.000000e+00  (FREE)  -1  SR Layer 49
 1.814000e-01
INTERNAL  1.000000e+00  (FREE)  -1  BROOKS Layer 49
 6.571400e+00
INTERNAL  1.000000e+00  (FREE)  -1  Kx Layer 50
 1.000000e+01
INTERNAL  1.000000e+00  (FREE)  -1  Kz Layer 50
 1.000000e+01
INTERNAL  1.000000e+00  (FREE)  -1  Ss Layer 50
 1.000000e-07
INTERNAL  1.000000e+00  (FREE)  -1  Sy Layer 50
 4.300000e-01
INTERNAL  1.000000e+00  (FREE)  -1  Alpha Layer 50
 3.600000e-02
INTERNAL  1.000000e+00  (FREE)  -1  Beta Layer 50
 1.560000e+00
INTERNAL  1.000000e+00  (FREE)  -1  SR Layer 50
 1.814000e-01
INTERNAL  1.000000e+00  (FREE)  -1  BROOKS Layer 50
 6.571400e+00
INTERNAL  1.000000e+00  (FREE)  -1  Kx Layer 51
 1.000000e+01
INTERNAL  1.000000e+00  (FREE)  -1  Kz Layer 51
 1.000000e+01
INTERNAL  1.000000e+00  (FREE)  -1  Ss Layer 51
 1.000000e-07
INTERNAL  1.000000e+00  (FREE)  -1  Sy Layer 51
 4.300000e-01
INTERNAL  1.000000e+00  (FREE)  -1  Alpha Layer 51
 3.600000e-02
INTERNAL  1.000000e+00  (FREE)  -1  Beta Layer 51
 1.560000e+00
INTERNAL  1.000000e+00  (FREE)  -1  SR Layer 51
 1.814000e-01
INTERNAL  1.000000e+00  (FREE)  -1  BROOKS Layer 51
 6.571400e+00
INTERNAL  1.000000e+00  (FREE)  -1  Kx Layer 52
 1.000000e+01
INTERNAL  1.000000e+00  (FREE)  -1  Kz Layer 52
 1.000000e+01
INTERNAL  1.000000e+00  (FREE)  -1  Ss Layer 52
 1.000000e-07
INTERNAL  1.000000e+00  (FREE)  -1  Sy Layer 52
 4.300000e-01
INTERNAL  1.000000e+00  (FREE)  -1  Alpha Layer 52
 3.600000e-02
INTERNAL  1.000000e+00  (FREE)  -1  Beta Layer 52
 1.560000e+00
INTERNAL  1.000000e+00  (FREE)  -1  SR Layer 52
 1.814000e-01
INTERNAL  1.000000e+00  (FREE)  -1  BROOKS Layer 52
 6.571400e+00
INTERNAL  1.000000e+00  (FREE)  -1  Kx Layer 53
 1.000000e+01
INTERNAL  1.000000e+00  (FREE)  -1  Kz Layer 53
 1.000000e+01
INTERNAL  1.000000e+00  (FREE)  -1  Ss Layer 53
 1.000000e-07
INTERNAL  1.000000e+00  (FREE)  -1  Sy Layer 53
 4.300000e-01
INTERNAL  1.000000e+00  (FREE)  -1  Alpha Layer 53
 3.600000e-02
INTERNAL  1.000000e+00  (FREE)  -1  Beta Layer 53
 1.560000e+00
INTERNAL  1.000000e+00  (FREE)  -1  SR Layer 53
 1.814000e-01
INTERNAL  1.000000e+00  (FREE)  -1  BROOKS Layer 53
 6.571400e+00
INTERNAL  1.000000e+00  (FREE)  -1  Kx Layer 54
 1.000000e+01
INTERNAL  1.000000e+00  (FREE)  -1  Kz Layer 54
 1.000000e+01
INTERNAL  1.000000e+00  (FREE)  -1  Ss Layer 54
 1.000000e-07
INTERNAL  1.000000e+00  (FREE)  -1  Sy Layer 54
 4.300000e-01
INTERNAL  1.000000e+00  (FREE)  -1  Alpha Layer 54
 3.600000e-02
INTERNAL  1.000000e+00  (FREE)  -1  Beta Layer 54
 1.560000e+00
INTERNAL  1.000000e+00  (FREE)  -1  SR Layer 54
 1.814000e-01
INTERNAL  1.000000e+00  (FREE)  -1  BROOKS Layer 54
 6.571400e+00
INTERNAL  1.000000e+00  (FREE)  -1  Kx Layer 55
 1.000000e+01
INTERNAL  1.000000e+00  (FREE)  -1  Kz Layer 55
 1.000000e+01
INTERNAL  1.000000e+00  (FREE)  -1  Ss Layer 55
 1.000000e-07
INTERNAL  1.000000e+00  (FREE)  -1  Sy Layer 55
 4.300000e-01
INTERNAL  1.000000e+00  (FREE)  -1  Alpha Layer 55
 3.600000e-02
INTERNAL  1.000000e+00  (FREE)  -1  Beta Layer 55
 1.560000e+00
INTERNAL  1.000000e+00  (FREE)  -1  SR Layer 55
 1.814000e-01