# MODFLOW-USG name file written by Groundwater Vistas
#xll:0.000000; yll:0.000000; rotation:0.000000;
LIST 7 swf1.lst
BAS6  1 swf1.bas
SMS  19 swf1.sms
DISU  29 swf1.dis
OC  22 swf1.oc
CHD  23 swf1.chd
RCH  2 swf1.rch
LPF 11 swf1.lpf
SWF 65 swf1.swf
DATA(BINARY) 144 swf1.swf.cbb
DATA(BINARY) 145 swf1.swf.hds
DATA(BINARY) 146 swf1.swf.ddn
DATA(BINARY) 50 swf1.gwf.cbb
DATA(BINARY) 30 swf1.gwf.hds
DATA(BINARY) 31 swf1.gwf.ddn
