# MODFLOW-USG Layer Property Flow (LPF) Package
 50 -1.000000e+30 0 0      CONSTANTCV NOVFC
 4
 0
 1.000000e+00
 0
 0
INTERNAL  1.000000e+00  (FREE)  -1  Kx Layer 1
 1.474000e-04 1.474000e-04 1.474000e-04 1.474000e-04 1.474000e-04 1.474000e-04 1.474000e-04 1.474000e-04 1.474000e-04 1.474000e-04
 1.474000e-04 1.474000e-04 1.474000e-04 1.474000e-04 1.474000e-04 1.474000e-04 1.474000e-04 1.474000e-04 1.474000e-04 1.474000e-04
 1.474000e-04 1.474000e-04 1.474000e-04 1.474000e-04 1.474000e-04 1.474000e-04 1.474000e-04 1.474000e-04 1.474000e-04 1.474000e-04
 1.474000e-04 1.474000e-04 1.474000e-04 1.474000e-04 1.474000e-04 1.474000e-04 1.474000e-04 1.474000e-04 1.474000e-04 1.474000e-04
 1.474000e-04 1.474000e-04 1.474000e-04 1.474000e-04 1.474000e-04 1.474000e-04 1.474000e-04 1.474000e-04 1.474000e-04 1.474000e-04
 1.474000e-04 1.474000e-04 1.474000e-04 1.474000e-04 1.474000e-04 1.474000e-04 1.474000e-04 1.474000e-04 1.474000e-04 1.474000e-04
 1.474000e-04 1.474000e-04 1.474000e-04 1.474000e-04 1.474000e-04 1.474000e-04 1.474000e-04 1.474000e-04 1.474000e-04 1.474000e-04
 1.474000e-04 1.474000e-04 1.474000e-04 1.474000e-04 1.474000e-04 1.474000e-04 1.474000e-04 1.474000e-04 1.474000e-04 1.474000e-04
 1.474000e-04 1.474000e-04 1.474000e-04 1.474000e-04 1.474000e-04 1.474000e-04 1.474000e-04 1.474000e-04 1.474000e-04 1.474000e-04
 1.474000e-04 1.474000e-04 1.474000e-04 1.474000e-04 1.474000e-04 1.474000e-04 1.474000e-04 1.474000e-04 1.474000e-04 1.474000e-04
 1.474000e-04
INTERNAL  1.000000e+00  (FREE)  -1  Kz Layer 1
 1.474000e-04 1.474000e-04 1.474000e-04 1.474000e-04 1.474000e-04 1.474000e-04 1.474000e-04 1.474000e-04 1.474000e-04 1.474000e-04
 1.474000e-04 1.474000e-04 1.474000e-04 1.474000e-04 1.474000e-04 1.474000e-04 1.474000e-04 1.474000e-04 1.474000e-04 1.474000e-04
 1.474000e-04 1.474000e-04 1.474000e-04 1.474000e-04 1.474000e-04 1.474000e-04 1.474000e-04 1.474000e-04 1.474000e-04 1.474000e-04
 1.474000e-04 1.474000e-04 1.474000e-04 1.474000e-04 1.474000e-04 1.474000e-04 1.474000e-04 1.474000e-04 1.474000e-04 1.474000e-04
 1.474000e-04 1.474000e-04 1.474000e-04 1.474000e-04 1.474000e-04 1.474000e-04 1.474000e-04 1.474000e-04 1.474000e-04 1.474000e-04
 1.474000e-04 1.474000e-04 1.474000e-04 1.474000e-04 1.474000e-04 1.474000e-04 1.474000e-04 1.474000e-04 1.474000e-04 1.474000e-04
 1.474000e-04 1.474000e-04 1.474000e-04 1.474000e-04 1.474000e-04 1.474000e-04 1.474000e-04 1.474000e-04 1.474000e-04 1.474000e-04
 1.474000e-04 1.474000e-04 1.474000e-04 1.474000e-04 1.474000e-04 1.474000e-04 1.474000e-04 1.474000e-04 1.474000e-04 1.474000e-04
 1.474000e-04 1.474000e-04 1.474000e-04 1.474000e-04 1.474000e-04 1.474000e-04 1.474000e-04 1.474000e-04 1.474000e-04 1.474000e-04
 1.474000e-04 1.474000e-04 1.474000e-04 1.474000e-04 1.474000e-04 1.474000e-04 1.474000e-04 1.474000e-04 1.474000e-04 1.474000e-04
 1.474000e-04
INTERNAL  1.000000e+00  (FREE)  -1  Ss Layer 1
 1.000000e-04 1.000000e-04 1.000000e-04 1.000000e-04 1.000000e-04 1.000000e-04 1.000000e-04 1.000000e-04 1.000000e-04 1.000000e-04
 1.000000e-04 1.000000e-04 1.000000e-04 1.000000e-04 1.000000e-04 1.000000e-04 1.000000e-04 1.000000e-04 1.000000e-04 1.000000e-04
 1.000000e-04 1.000000e-04 1.000000e-04 1.000000e-04 1.000000e-04 1.000000e-04 1.000000e-04 1.000000e-04 1.000000e-04 1.000000e-04
 1.000000e-04 1.000000e-04 1.000000e-04 1.000000e-04 1.000000e-04 1.000000e-04 1.000000e-04 1.000000e-04 1.000000e-04 1.000000e-04
 1.000000e-04 1.000000e-04 1.000000e-04 1.000000e-04 1.000000e-04 1.000000e-04 1.000000e-04 1.000000e-04 1.000000e-04 1.000000e-04
 1.000000e-04 1.000000e-04 1.000000e-04 1.000000e-04 1.000000e-04 1.000000e-04 1.000000e-04 1.000000e-04 1.000000e-04 1.000000e-04
 1.000000e-04 1.000000e-04 1.000000e-04 1.000000e-04 1.000000e-04 1.000000e-04 1.000000e-04 1.000000e-04 1.000000e-04 1.000000e-04
 1.000000e-04 1.000000e-04 1.000000e-04 1.000000e-04 1.000000e-04 1.000000e-04 1.000000e-04 1.000000e-04 1.000000e-04 1.000000e-04
 1.000000e-04 1.000000e-04 1.000000e-04 1.000000e-04 1.000000e-04 1.000000e-04 1.000000e-04 1.000000e-04 1.000000e-04 1.000000e-04
 1.000000e-04 1.000000e-04 1.000000e-04 1.000000e-04 1.000000e-04 1.000000e-04 1.000000e-04 1.000000e-04 1.000000e-04 1.000000e-04
 1.000000e-04
INTERNAL  1.000000e+00  (FREE)  -1  Sy Layer 1
 3.000000e-01 3.000000e-01 3.000000e-01 3.000000e-01 3.000000e-01 3.000000e-01 3.000000e-01 3.000000e-01 3.000000e-01 3.000000e-01
 3.000000e-01 3.000000e-01 3.000000e-01 3.000000e-01 3.000000e-01 3.000000e-01 3.000000e-01 3.000000e-01 3.000000e-01 3.000000e-01
 3.000000e-01 3.000000e-01 3.000000e-01 3.000000e-01 3.000000e-01 3.000000e-01 3.000000e-01 3.000000e-01 3.000000e-01 3.000000e-01
 3.000000e-01 3.000000e-01 3.000000e-01 3.000000e-01 3.000000e-01 3.000000e-01 3.000000e-01 3.000000e-01 3.000000e-01 3.000000e-01
 3.000000e-01 3.000000e-01 3.000000e-01 3.000000e-01 3.000000e-01 3.000000e-01 3.000000e-01 3.000000e-01 3.000000e-01 3.000000e-01
 3.000000e-01 3.000000e-01 3.000000e-01 3.000000e-01 3.000000e-01 3.000000e-01 3.000000e-01 3.000000e-01 3.000000e-01 3.000000e-01
 3.000000e-01 3.000000e-01 3.000000e-01 3.000000e-01 3.000000e-01 3.000000e-01 3.000000e-01 3.000000e-01 3.000000e-01 3.000000e-01
 3.000000e-01 3.000000e-01 3.000000e-01 3.000000e-01 3.000000e-01 3.000000e-01 3.000000e-01 3.000000e-01 3.000000e-01 3.000000e-01
 3.000000e-01 3.000000e-01 3.000000e-01 3.000000e-01 3.000000e-01 3.000000e-01 3.000000e-01 3.000000e-01 3.000000e-01 3.000000e-01
 3.000000e-01 3.000000e-01 3.000000e-01 3.000000e-01 3.000000e-01 3.000000e-01 3.000000e-01 3.000000e-01 3.000000e-01 3.000000e-01
 3.000000e-01
