# MODFLOW-USGs Constant-Head Boundary Package (CHD)
         1
 1
202   1.4017  1.4017
