# MODFLOW-USGs Recharge Package
 2 50
 101
INTERNAL  1.000000e+00  (FREE)  -1  RECHARGE
 4.000000e-03 4.000000e-03 4.000000e-03 4.000000e-03 4.000000e-03 4.000000e-03 4.000000e-03 4.000000e-03 4.000000e-03 4.000000e-03
 4.000000e-03 4.000000e-03 4.000000e-03 4.000000e-03 4.000000e-03 4.000000e-03 4.000000e-03 4.000000e-03 4.000000e-03 4.000000e-03
 4.000000e-03 4.000000e-03 4.000000e-03 4.000000e-03 4.000000e-03 4.000000e-03 4.000000e-03 4.000000e-03 4.000000e-03 4.000000e-03
 4.000000e-03 4.000000e-03 4.000000e-03 4.000000e-03 4.000000e-03 4.000000e-03 4.000000e-03 4.000000e-03 4.000000e-03 4.000000e-03
 4.000000e-03 4.000000e-03 4.000000e-03 4.000000e-03 4.000000e-03 4.000000e-03 4.000000e-03 4.000000e-03 4.000000e-03 4.000000e-03
 4.000000e-03 4.000000e-03 4.000000e-03 4.000000e-03 4.000000e-03 4.000000e-03 4.000000e-03 4.000000e-03 4.000000e-03 4.000000e-03
 4.000000e-03 4.000000e-03 4.000000e-03 4.000000e-03 4.000000e-03 4.000000e-03 4.000000e-03 4.000000e-03 4.000000e-03 4.000000e-03
 4.000000e-03 4.000000e-03 4.000000e-03 4.000000e-03 4.000000e-03 4.000000e-03 4.000000e-03 4.000000e-03 4.000000e-03 4.000000e-03
 4.000000e-03 4.000000e-03 4.000000e-03 4.000000e-03 4.000000e-03 4.000000e-03 4.000000e-03 4.000000e-03 4.000000e-03 4.000000e-03
 4.000000e-03 4.000000e-03 4.000000e-03 4.000000e-03 4.000000e-03 4.000000e-03 4.000000e-03 4.000000e-03 4.000000e-03 4.000000e-03
 4.000000e-03
