# MODFLOW-USG name file written by Groundwater Vistas
#xll:0.000000; yll:0.000000; rotation:0.000000;
LIST 7 abdulrec_1.lst
BAS6  1 abdulrec_1.bas
SMS  19 abdulrec_1.sms
DISU  29 abdulrec_1.dis
OC  22 abdulrec_1.oc
LPF 11 abdulrec_1.lpf
DATA 166 abdulrec_1_FlowReduction.dat
DATA(BINARY) 50 abdulrec_1.cbb
DATA(BINARY) 30 abdulrec_1.hds
DATA(BINARY) 31 abdulrec_1.ddn
