# MODFLOW-USG SWBC file written by Modflow-User-Tools version       1.13
           12         118
           1
64431	0.25
64427	0.25
64423	0.25
64419	0.25
64306	0.25
64307	0.25
64308	0.25
64309	0.25
64322	0.25
64323	0.25
64324	0.25
64325	0.25
        -1
