# MODFLOW-USG Layer Property Flow (LPF) Package
 114 -1.000000e+30 0 0      CONSTANTCV NOVFC
 4 4 4 4 4 4 4 4 4 4 4 4 4 4 4
 0 0 0 0 0 0 0 0 0 0 0 0 0 0 0
 1.000000e+00
 1.000000e+00
 1.000000e+00
 1.000000e+00
 1.000000e+00
 1.000000e+00
 1.000000e+00
 1.000000e+00
 1.000000e+00
 1.000000e+00
 1.000000e+00
 1.000000e+00
 1.000000e+00
 1.000000e+00
 1.000000e+00
 0 0 0 0 0 0 0 0 0 0 0 0 0 0 0
 0 0 0 0 0 0 0 0 0 0 0 0 0 0 0
CONSTANT  1.000000e-05              Kx Layer 1
CONSTANT  1.000000e-05              Kz Layer 1
CONSTANT  0.120000E-06				Ss
CONSTANT  0.340000  				Sy
INTERNAL  1.000000e+00  (FREE)  -1  Alpha Layer 1
 1.900000e+00 1.900000e+00 1.900000e+00 1.900000e+00 1.900000e+00 1.900000e+00 1.900000e+00 1.900000e+00 1.900000e+00 1.900000e+00
 1.900000e+00 1.900000e+00 1.900000e+00 1.900000e+00 1.900000e+00 1.900000e+00 1.900000e+00 1.900000e+00 1.900000e+00 1.900000e+00
 1.900000e+00 1.900000e+00 1.900000e+00 1.900000e+00 1.900000e+00 1.900000e+00 1.900000e+00 1.900000e+00 1.900000e+00 1.900000e+00
 1.900000e+00 1.900000e+00 1.900000e+00 1.900000e+00 1.900000e+00 1.900000e+00 1.900000e+00 1.900000e+00 1.900000e+00 1.900000e+00
 1.900000e+00 1.900000e+00 1.900000e+00 1.900000e+00 1.900000e+00 1.900000e+00 1.900000e+00 1.900000e+00 1.900000e+00 1.900000e+00
 1.900000e+00 1.900000e+00 1.900000e+00 1.900000e+00 1.900000e+00 1.900000e+00 1.900000e+00 1.900000e+00 1.900000e+00 1.900000e+00
 1.900000e+00 1.900000e+00 1.900000e+00 1.900000e+00 1.900000e+00 1.900000e+00 1.900000e+00 1.900000e+00 1.900000e+00 1.900000e+00
 1.900000e+00 1.900000e+00 1.900000e+00 1.900000e+00 1.900000e+00 1.900000e+00 1.900000e+00 1.900000e+00 1.900000e+00 1.900000e+00
 1.900000e+00 1.900000e+00 1.900000e+00 1.900000e+00 1.900000e+00 1.900000e+00 1.900000e+00 1.900000e+00 1.900000e+00 1.900000e+00
 1.900000e+00 1.900000e+00 1.900000e+00 1.900000e+00 1.900000e+00 1.900000e+00 1.900000e+00 1.900000e+00 1.900000e+00 1.900000e+00
 1.900000e+00 1.900000e+00 1.900000e+00 1.900000e+00 1.900000e+00 1.900000e+00 1.900000e+00 1.900000e+00 1.900000e+00 1.900000e+00
 1.900000e+00 1.900000e+00 1.900000e+00 1.900000e+00 1.900000e+00 1.900000e+00 1.900000e+00 1.900000e+00 1.900000e+00 1.900000e+00
 1.900000e+00 1.900000e+00 1.900000e+00 1.900000e+00 1.900000e+00 1.900000e+00 1.900000e+00 1.900000e+00 1.900000e+00 1.900000e+00
 1.900000e+00 1.900000e+00 1.900000e+00 1.900000e+00 1.900000e+00 1.900000e+00 1.900000e+00 1.900000e+00 1.900000e+00 1.900000e+00
 1.900000e+00 1.900000e+00 1.900000e+00 1.900000e+00 1.900000e+00 1.900000e+00 1.900000e+00 1.900000e+00 1.900000e+00 1.900000e+00
 1.900000e+00 1.900000e+00 1.900000e+00 1.900000e+00 1.900000e+00 1.900000e+00 1.900000e+00 1.900000e+00 1.900000e+00 1.900000e+00
 1.900000e+00 1.900000e+00 1.900000e+00 1.900000e+00 1.900000e+00 1.900000e+00 1.900000e+00 1.900000e+00 1.900000e+00 1.900000e+00
 1.900000e+00 1.900000e+00 1.900000e+00 1.900000e+00 1.900000e+00 1.900000e+00 1.900000e+00 1.900000e+00 1.900000e+00 1.900000e+00
 1.900000e+00 1.900000e+00 1.900000e+00 1.900000e+00 1.900000e+00 1.900000e+00 1.900000e+00 1.900000e+00 1.900000e+00 1.900000e+00
 1.900000e+00 1.900000e+00 1.900000e+00 1.900000e+00 1.900000e+00 1.900000e+00 1.900000e+00 1.900000e+00 1.900000e+00 1.900000e+00
 1.900000e+00 1.900000e+00 1.900000e+00 1.900000e+00 1.900000e+00 1.900000e+00 1.900000e+00 1.900000e+00 1.900000e+00 1.900000e+00
 1.900000e+00 1.900000e+00 1.900000e+00 1.900000e+00 1.900000e+00 1.900000e+00 1.900000e+00 1.900000e+00 1.900000e+00 1.900000e+00
 1.900000e+00 1.900000e+00 1.900000e+00 1.900000e+00 1.900000e+00 1.900000e+00 1.900000e+00 1.900000e+00 1.900000e+00 1.900000e+00
 1.900000e+00 1.900000e+00 1.900000e+00 1.900000e+00 1.900000e+00 1.900000e+00 1.900000e+00 1.900000e+00 1.900000e+00 1.900000e+00
 1.900000e+00 1.900000e+00 1.900000e+00 1.900000e+00 1.900000e+00 1.900000e+00 1.900000e+00 1.900000e+00 1.900000e+00 1.900000e+00
 1.900000e+00 1.900000e+00 1.900000e+00 1.900000e+00 1.900000e+00 1.900000e+00 1.900000e+00 1.900000e+00 1.900000e+00 1.900000e+00
 1.900000e+00 1.900000e+00 1.900000e+00 1.900000e+00 1.900000e+00 1.900000e+00 1.900000e+00 1.900000e+00 1.900000e+00 1.900000e+00
 1.900000e+00 1.900000e+00 1.900000e+00 1.900000e+00 1.900000e+00 1.900000e+00 1.900000e+00 1.900000e+00 1.900000e+00 1.900000e+00
 1.900000e+00 1.900000e+00 1.900000e+00 1.900000e+00 1.900000e+00 1.900000e+00 1.900000e+00 1.900000e+00 1.900000e+00 1.900000e+00
 1.900000e+00 1.900000e+00 1.900000e+00 1.900000e+00 1.900000e+00 1.900000e+00 1.900000e+00 1.900000e+00 1.900000e+00 1.900000e+00
 1.900000e+00 1.900000e+00 1.900000e+00 1.900000e+00 1.900000e+00 1.900000e+00 1.900000e+00 1.900000e+00 1.900000e+00 1.900000e+00
 1.900000e+00 1.900000e+00 1.900000e+00 1.900000e+00 1.900000e+00 1.900000e+00 1.900000e+00 1.900000e+00 1.900000e+00 1.900000e+00
 1.900000e+00 1.900000e+00 1.900000e+00 1.900000e+00 1.900000e+00 1.900000e+00 1.900000e+00 1.900000e+00 1.900000e+00 1.900000e+00
 1.900000e+00 1.900000e+00 1.900000e+00 1.900000e+00 1.900000e+00 1.900000e+00 1.900000e+00 1.900000e+00 1.900000e+00 1.900000e+00
 1.900000e+00 1.900000e+00 1.900000e+00 1.900000e+00 1.900000e+00 1.900000e+00 1.900000e+00 1.900000e+00 1.900000e+00 1.900000e+00
 1.900000e+00 1.900000e+00 1.900000e+00 1.900000e+00 1.900000e+00 1.900000e+00 1.900000e+00 1.900000e+00 1.900000e+00 1.900000e+00
 1.900000e+00 1.900000e+00 1.900000e+00 1.900000e+00 1.900000e+00 1.900000e+00 1.900000e+00 1.900000e+00 1.900000e+00 1.900000e+00
 1.900000e+00 1.900000e+00 1.900000e+00 1.900000e+00 1.900000e+00 1.900000e+00 1.900000e+00 1.900000e+00 1.900000e+00 1.900000e+00
 1.900000e+00 1.900000e+00 1.900000e+00 1.900000e+00 1.900000e+00 1.900000e+00 1.900000e+00 1.900000e+00 1.900000e+00 1.900000e+00
 1.900000e+00 1.900000e+00 1.900000e+00 1.900000e+00 1.900000e+00 1.900000e+00 1.900000e+00 1.900000e+00 1.900000e+00 1.900000e+00
 1.900000e+00 1.900000e+00 1.900000e+00 1.900000e+00 1.900000e+00 1.900000e+00 1.900000e+00 1.900000e+00 1.900000e+00 1.900000e+00
 1.900000e+00 1.900000e+00 1.900000e+00 1.900000e+00 1.900000e+00 1.900000e+00 1.900000e+00 1.900000e+00 1.900000e+00 1.900000e+00
 1.900000e+00 1.900000e+00 1.900000e+00 1.900000e+00 1.900000e+00 1.900000e+00 1.900000e+00 1.900000e+00 1.900000e+00 1.900000e+00
 1.900000e+00 1.900000e+00 1.900000e+00 1.900000e+00 1.900000e+00 1.900000e+00 1.900000e+00 1.900000e+00 1.900000e+00 1.900000e+00
 1.900000e+00 1.900000e+00 1.900000e+00 1.900000e+00 1.900000e+00 1.900000e+00 1.900000e+00 1.900000e+00 1.900000e+00 1.900000e+00
 1.900000e+00 1.900000e+00 1.900000e+00 1.900000e+00 1.900000e+00 1.900000e+00 1.900000e+00 1.900000e+00 1.900000e+00 1.900000e+00
 1.900000e+00 1.900000e+00 1.900000e+00 1.900000e+00 1.900000e+00 1.900000e+00 1.900000e+00 1.900000e+00 1.900000e+00 1.900000e+00
 1.900000e+00 1.900000e+00 1.900000e+00 1.900000e+00 1.900000e+00 1.900000e+00 1.900000e+00 1.900000e+00 1.900000e+00 1.900000e+00
 1.900000e+00 1.900000e+00 1.900000e+00 1.900000e+00 1.900000e+00 1.900000e+00 1.900000e+00 1.900000e+00 1.900000e+00 1.900000e+00
 1.900000e+00 1.900000e+00 1.900000e+00 1.900000e+00 1.900000e+00 1.900000e+00 1.900000e+00 1.900000e+00 1.900000e+00 1.900000e+00
 1.900000e+00 1.900000e+00 1.900000e+00 1.900000e+00 1.900000e+00 1.900000e+00 1.900000e+00 1.900000e+00 1.900000e+00 1.900000e+00
 1.900000e+00 1.900000e+00 1.900000e+00 1.900000e+00 1.900000e+00 1.900000e+00 1.900000e+00 1.900000e+00 1.900000e+00 1.900000e+00
 1.900000e+00 1.900000e+00 1.900000e+00 1.900000e+00 1.900000e+00 1.900000e+00 1.900000e+00 1.900000e+00 1.900000e+00 1.900000e+00
 1.900000e+00 1.900000e+00 1.900000e+00 1.900000e+00 1.900000e+00 1.900000e+00 1.900000e+00 1.900000e+00 1.900000e+00 1.900000e+00
 1.900000e+00 1.900000e+00 1.900000e+00 1.900000e+00 1.900000e+00 1.900000e+00 1.900000e+00 1.900000e+00 1.900000e+00 1.900000e+00
 1.900000e+00 1.900000e+00 1.900000e+00 1.900000e+00 1.900000e+00 1.900000e+00 1.900000e+00 1.900000e+00 1.900000e+00 1.900000e+00
 1.900000e+00 1.900000e+00 1.900000e+00 1.900000e+00 1.900000e+00 1.900000e+00 1.900000e+00 1.900000e+00 1.900000e+00 1.900000e+00
 1.900000e+00 1.900000e+00 1.900000e+00 1.900000e+00 1.900000e+00 1.900000e+00 1.900000e+00 1.900000e+00 1.900000e+00 1.900000e+00
 1.900000e+00 1.900000e+00 1.900000e+00 1.900000e+00 1.900000e+00 1.900000e+00 1.900000e+00 1.900000e+00 1.900000e+00 1.900000e+00
 1.900000e+00 1.900000e+00 1.900000e+00 1.900000e+00 1.900000e+00 1.900000e+00 1.900000e+00 1.900000e+00 1.900000e+00 1.900000e+00
 1.900000e+00 1.900000e+00 1.900000e+00 1.900000e+00 1.900000e+00 1.900000e+00 1.900000e+00 1.900000e+00 1.900000e+00 1.900000e+00
 1.900000e+00 1.900000e+00 1.900000e+00 1.900000e+00 1.900000e+00 1.900000e+00 1.900000e+00 1.900000e+00 1.900000e+00 1.900000e+00
 1.900000e+00 1.900000e+00 1.900000e+00 1.900000e+00 1.900000e+00 1.900000e+00 1.900000e+00 1.900000e+00 1.900000e+00 1.900000e+00
 1.900000e+00 1.900000e+00 1.900000e+00 1.900000e+00 1.900000e+00 1.900000e+00 1.900000e+00 1.900000e+00 1.900000e+00 1.900000e+00
 1.900000e+00 1.900000e+00 1.900000e+00 1.900000e+00 1.900000e+00 1.900000e+00 1.900000e+00 1.900000e+00 1.900000e+00 1.900000e+00
 1.900000e+00 1.900000e+00 1.900000e+00 1.900000e+00 1.900000e+00 1.900000e+00 1.900000e+00 1.900000e+00 1.900000e+00 1.900000e+00
 1.900000e+00 1.900000e+00 1.900000e+00 1.900000e+00 1.900000e+00 1.900000e+00 1.900000e+00 1.900000e+00 1.900000e+00 1.900000e+00
 1.900000e+00 1.900000e+00 1.900000e+00 1.900000e+00 1.900000e+00 1.900000e+00 1.900000e+00 1.900000e+00 1.900000e+00 1.900000e+00
 1.900000e+00 1.900000e+00 1.900000e+00 1.900000e+00 1.900000e+00 1.900000e+00 1.900000e+00 1.900000e+00 1.900000e+00 1.900000e+00
 1.900000e+00 1.900000e+00 1.900000e+00 1.900000e+00 1.900000e+00 1.900000e+00 1.900000e+00 1.900000e+00 1.900000e+00 1.900000e+00
 1.900000e+00 1.900000e+00 1.900000e+00 1.900000e+00 1.900000e+00 1.900000e+00 1.900000e+00 1.900000e+00 1.900000e+00 1.900000e+00
 1.900000e+00 1.900000e+00 1.900000e+00 1.900000e+00 1.900000e+00 1.900000e+00 1.900000e+00 1.900000e+00 1.900000e+00 1.900000e+00
 1.900000e+00 1.900000e+00 1.900000e+00 1.900000e+00 1.900000e+00 1.900000e+00 1.900000e+00 1.900000e+00 1.900000e+00 1.900000e+00
 1.900000e+00 1.900000e+00 1.900000e+00 1.900000e+00 1.900000e+00 1.900000e+00 1.900000e+00 1.900000e+00 1.900000e+00 1.900000e+00
 1.900000e+00 1.900000e+00 1.900000e+00 1.900000e+00 1.900000e+00 1.900000e+00 1.900000e+00 1.900000e+00 1.900000e+00 1.900000e+00
 1.900000e+00 1.900000e+00 1.900000e+00 1.900000e+00 1.900000e+00 1.900000e+00 1.900000e+00 1.900000e+00 1.900000e+00 1.900000e+00
 1.900000e+00 1.900000e+00 1.900000e+00 1.900000e+00 1.900000e+00 1.900000e+00 1.900000e+00 1.900000e+00 1.900000e+00 1.900000e+00
 1.900000e+00 1.900000e+00 1.900000e+00 1.900000e+00 1.900000e+00 1.900000e+00 1.900000e+00 1.900000e+00 1.900000e+00 1.900000e+00
 1.900000e+00 1.900000e+00 1.900000e+00 1.900000e+00 1.900000e+00 1.900000e+00 1.900000e+00 1.900000e+00 1.900000e+00 1.900000e+00
 1.900000e+00 1.900000e+00 1.900000e+00 1.900000e+00 1.900000e+00 1.900000e+00 1.900000e+00 1.900000e+00 1.900000e+00 1.900000e+00
 1.900000e+00 1.900000e+00 1.900000e+00 1.900000e+00 1.900000e+00 1.900000e+00 1.900000e+00 1.900000e+00 1.900000e+00 1.900000e+00
 1.900000e+00 1.900000e+00 1.900000e+00 1.900000e+00 1.900000e+00 1.900000e+00 1.900000e+00 1.900000e+00 1.900000e+00 1.900000e+00
 1.900000e+00 1.900000e+00 1.900000e+00 1.900000e+00 1.900000e+00 1.900000e+00 1.900000e+00 1.900000e+00 1.900000e+00 1.900000e+00
 1.900000e+00 1.900000e+00 1.900000e+00 1.900000e+00 1.900000e+00 1.900000e+00 1.900000e+00 1.900000e+00 1.900000e+00 1.900000e+00
 1.900000e+00 1.900000e+00 1.900000e+00 1.900000e+00 1.900000e+00 1.900000e+00 1.900000e+00 1.900000e+00 1.900000e+00 1.900000e+00
 1.900000e+00 1.900000e+00 1.900000e+00 1.900000e+00 1.900000e+00 1.900000e+00 1.900000e+00 1.900000e+00 1.900000e+00 1.900000e+00
 1.900000e+00 1.900000e+00 1.900000e+00 1.900000e+00 1.900000e+00 1.900000e+00 1.900000e+00 1.900000e+00 1.900000e+00 1.900000e+00
 1.900000e+00 1.900000e+00 1.900000e+00 1.900000e+00 1.900000e+00 1.900000e+00 1.900000e+00 1.900000e+00 1.900000e+00 1.900000e+00
 1.900000e+00 1.900000e+00 1.900000e+00 1.900000e+00 1.900000e+00 1.900000e+00 1.900000e+00 1.900000e+00 1.900000e+00 1.900000e+00
 1.900000e+00 1.900000e+00 1.900000e+00 1.900000e+00 1.900000e+00 1.900000e+00 1.900000e+00 1.900000e+00 1.900000e+00 1.900000e+00
 1.900000e+00 1.900000e+00 1.900000e+00 1.900000e+00 1.900000e+00 1.900000e+00 1.900000e+00 1.900000e+00 1.900000e+00 1.900000e+00
 1.900000e+00 1.900000e+00 1.900000e+00 1.900000e+00 1.900000e+00 1.900000e+00 1.900000e+00 1.900000e+00 1.900000e+00 1.900000e+00
 1.900000e+00 1.900000e+00 1.900000e+00 1.900000e+00 1.900000e+00 1.900000e+00 1.900000e+00 1.900000e+00 1.900000e+00 1.900000e+00
 1.900000e+00 1.900000e+00 1.900000e+00 1.900000e+00 1.900000e+00 1.900000e+00 1.900000e+00 1.900000e+00 1.900000e+00 1.900000e+00
 1.900000e+00 1.900000e+00 1.900000e+00 1.900000e+00 1.900000e+00 1.900000e+00 1.900000e+00 1.900000e+00 1.900000e+00 1.900000e+00
 1.900000e+00 1.900000e+00 1.900000e+00 1.900000e+00 1.900000e+00 1.900000e+00 1.900000e+00 1.900000e+00 1.900000e+00 1.900000e+00
 1.900000e+00 1.900000e+00 1.900000e+00 1.900000e+00 1.900000e+00 1.900000e+00 1.900000e+00 1.900000e+00 1.900000e+00 1.900000e+00
 1.900000e+00 1.900000e+00 1.900000e+00 1.900000e+00 1.900000e+00 1.900000e+00 1.900000e+00 1.900000e+00 1.900000e+00 1.900000e+00
 1.900000e+00 1.900000e+00 1.900000e+00 1.900000e+00 1.900000e+00 1.900000e+00 1.900000e+00 1.900000e+00 1.900000e+00 1.900000e+00
 1.900000e+00 1.900000e+00 1.900000e+00 1.900000e+00 1.900000e+00 1.900000e+00 1.900000e+00 1.900000e+00 1.900000e+00 1.900000e+00
 1.900000e+00 1.900000e+00 1.900000e+00 1.900000e+00 1.900000e+00 1.900000e+00 1.900000e+00 1.900000e+00 1.900000e+00 1.900000e+00
 1.900000e+00 1.900000e+00 1.900000e+00 1.900000e+00 1.900000e+00 1.900000e+00 1.900000e+00 1.900000e+00 1.900000e+00 1.900000e+00
 1.900000e+00 1.900000e+00 1.900000e+00 1.900000e+00 1.900000e+00 1.900000e+00 1.900000e+00 1.900000e+00 1.900000e+00 1.900000e+00
 1.900000e+00 1.900000e+00 1.900000e+00 1.900000e+00 1.900000e+00 1.900000e+00 1.900000e+00 1.900000e+00 1.900000e+00 1.900000e+00
 1.900000e+00 1.900000e+00 1.900000e+00 1.900000e+00 1.900000e+00 1.900000e+00 1.900000e+00 1.900000e+00 1.900000e+00 1.900000e+00
 1.900000e+00 1.900000e+00 1.900000e+00 1.900000e+00 1.900000e+00 1.900000e+00 1.900000e+00 1.900000e+00 1.900000e+00 1.900000e+00
 1.900000e+00 1.900000e+00 1.900000e+00 1.900000e+00 1.900000e+00 1.900000e+00 1.900000e+00 1.900000e+00 1.900000e+00 1.900000e+00
 1.900000e+00 1.900000e+00 1.900000e+00 1.900000e+00 1.900000e+00 1.900000e+00 1.900000e+00 1.900000e+00 1.900000e+00 1.900000e+00
 1.900000e+00 1.900000e+00 1.900000e+00 1.900000e+00 1.900000e+00 1.900000e+00 1.900000e+00 1.900000e+00 1.900000e+00 1.900000e+00
 1.900000e+00 1.900000e+00 1.900000e+00 1.900000e+00 1.900000e+00 1.900000e+00 1.900000e+00 1.900000e+00 1.900000e+00 1.900000e+00
 1.900000e+00 1.900000e+00 1.900000e+00 1.900000e+00 1.900000e+00 1.900000e+00 1.900000e+00 1.900000e+00 1.900000e+00 1.900000e+00
 1.900000e+00 1.900000e+00 1.900000e+00 1.900000e+00 1.900000e+00 1.900000e+00 1.900000e+00 1.900000e+00 1.900000e+00 1.900000e+00
 1.900000e+00 1.900000e+00 1.900000e+00 1.900000e+00 1.900000e+00 1.900000e+00 1.900000e+00 1.900000e+00 1.900000e+00 1.900000e+00
 1.900000e+00 1.900000e+00 1.900000e+00 1.900000e+00 1.900000e+00 1.900000e+00 1.900000e+00 1.900000e+00 1.900000e+00 1.900000e+00
 1.900000e+00 1.900000e+00 1.900000e+00 1.900000e+00 1.900000e+00 1.900000e+00 1.900000e+00 1.900000e+00 1.900000e+00 1.900000e+00
 1.900000e+00 1.900000e+00 1.900000e+00 1.900000e+00 1.900000e+00 1.900000e+00 1.900000e+00 1.900000e+00 1.900000e+00 1.900000e+00
 1.900000e+00 1.900000e+00 1.900000e+00 1.900000e+00 1.900000e+00 1.900000e+00 1.900000e+00 1.900000e+00 1.900000e+00 1.900000e+00
 1.900000e+00 1.900000e+00 1.900000e+00 1.900000e+00 1.900000e+00 1.900000e+00 1.900000e+00 1.900000e+00 1.900000e+00 1.900000e+00
 1.900000e+00 1.900000e+00 1.900000e+00 1.900000e+00 1.900000e+00 1.900000e+00 1.900000e+00 1.900000e+00 1.900000e+00 1.900000e+00
 1.900000e+00 1.900000e+00 1.900000e+00 1.900000e+00 1.900000e+00 1.900000e+00 1.900000e+00 1.900000e+00 1.900000e+00 1.900000e+00
 1.900000e+00 1.900000e+00 1.900000e+00 1.900000e+00 1.900000e+00 1.900000e+00 1.900000e+00 1.900000e+00 1.900000e+00 1.900000e+00
 1.900000e+00 1.900000e+00 1.900000e+00 1.900000e+00 1.900000e+00 1.900000e+00 1.900000e+00 1.900000e+00 1.900000e+00 1.900000e+00
 1.900000e+00 1.900000e+00 1.900000e+00 1.900000e+00 1.900000e+00 1.900000e+00 1.900000e+00 1.900000e+00 1.900000e+00 1.900000e+00
 1.900000e+00 1.900000e+00 1.900000e+00 1.900000e+00 1.900000e+00 1.900000e+00 1.900000e+00 1.900000e+00 1.900000e+00 1.900000e+00
 1.900000e+00 1.900000e+00 1.900000e+00 1.900000e+00 1.900000e+00 1.900000e+00 1.900000e+00 1.900000e+00 1.900000e+00 1.900000e+00
 1.900000e+00 1.900000e+00 1.900000e+00 1.900000e+00 1.900000e+00 1.900000e+00 1.900000e+00 1.900000e+00 1.900000e+00 1.900000e+00
 1.900000e+00 1.900000e+00 1.900000e+00 1.900000e+00 1.900000e+00 1.900000e+00 1.900000e+00 1.900000e+00 1.900000e+00 1.900000e+00
 1.900000e+00 1.900000e+00 1.900000e+00 1.900000e+00 1.900000e+00 1.900000e+00 1.900000e+00 1.900000e+00 1.900000e+00 1.900000e+00
 1.900000e+00 1.900000e+00 1.900000e+00 1.900000e+00 1.900000e+00 1.900000e+00 1.900000e+00 1.900000e+00 1.900000e+00 1.900000e+00
 1.900000e+00 1.900000e+00 1.900000e+00 1.900000e+00 1.900000e+00 1.900000e+00 1.900000e+00 1.900000e+00 1.900000e+00 1.900000e+00
 1.900000e+00 1.900000e+00 1.900000e+00 1.900000e+00 1.900000e+00 1.900000e+00 1.900000e+00 1.900000e+00 1.900000e+00 1.900000e+00
 1.900000e+00 1.900000e+00 1.900000e+00 1.900000e+00 1.900000e+00 1.900000e+00 1.900000e+00 1.900000e+00 1.900000e+00 1.900000e+00
 1.900000e+00 1.900000e+00 1.900000e+00 1.900000e+00 1.900000e+00 1.900000e+00 1.900000e+00 1.900000e+00 1.900000e+00 1.900000e+00
 1.900000e+00 1.900000e+00 1.900000e+00 1.900000e+00 1.900000e+00 1.900000e+00 1.900000e+00 1.900000e+00 1.900000e+00 1.900000e+00
 1.900000e+00 1.900000e+00 1.900000e+00 1.900000e+00 1.900000e+00 1.900000e+00 1.900000e+00 1.900000e+00 1.900000e+00 1.900000e+00
 1.900000e+00 1.900000e+00 1.900000e+00 1.900000e+00 1.900000e+00 1.900000e+00 1.900000e+00 1.900000e+00 1.900000e+00 1.900000e+00
 1.900000e+00 1.900000e+00 1.900000e+00 1.900000e+00 1.900000e+00 1.900000e+00 1.900000e+00 1.900000e+00 1.900000e+00 1.900000e+00
 1.900000e+00 1.900000e+00 1.900000e+00 1.900000e+00 1.900000e+00 1.900000e+00 1.900000e+00 1.900000e+00 1.900000e+00 1.900000e+00
 1.900000e+00 1.900000e+00 1.900000e+00 1.900000e+00 1.900000e+00 1.900000e+00 1.900000e+00 1.900000e+00 1.900000e+00 1.900000e+00
 1.900000e+00 1.900000e+00 1.900000e+00 1.900000e+00 1.900000e+00 1.900000e+00 1.900000e+00 1.900000e+00 1.900000e+00 1.900000e+00
 1.900000e+00 1.900000e+00 1.900000e+00 1.900000e+00 1.900000e+00 1.900000e+00 1.900000e+00 1.900000e+00 1.900000e+00 1.900000e+00
 1.900000e+00 1.900000e+00 1.900000e+00 1.900000e+00 1.900000e+00 1.900000e+00 1.900000e+00 1.900000e+00 1.900000e+00 1.900000e+00
 1.900000e+00 1.900000e+00 1.900000e+00 1.900000e+00 1.900000e+00 1.900000e+00 1.900000e+00 1.900000e+00 1.900000e+00 1.900000e+00
 1.900000e+00 1.900000e+00 1.900000e+00 1.900000e+00 1.900000e+00 1.900000e+00 1.900000e+00 1.900000e+00 1.900000e+00 1.900000e+00
 1.900000e+00 1.900000e+00 1.900000e+00 1.900000e+00 1.900000e+00 1.900000e+00 1.900000e+00 1.900000e+00 1.900000e+00 1.900000e+00
 1.900000e+00 1.900000e+00 1.900000e+00 1.900000e+00 1.900000e+00 1.900000e+00 1.900000e+00 1.900000e+00 1.900000e+00 1.900000e+00
 1.900000e+00 1.900000e+00 1.900000e+00 1.900000e+00 1.900000e+00 1.900000e+00 1.900000e+00 1.900000e+00 1.900000e+00 1.900000e+00
 1.900000e+00 1.900000e+00 1.900000e+00 1.900000e+00 1.900000e+00 1.900000e+00 1.900000e+00 1.900000e+00 1.900000e+00 1.900000e+00
 1.900000e+00 1.900000e+00 1.900000e+00 1.900000e+00 1.900000e+00 1.900000e+00 1.900000e+00 1.900000e+00 1.900000e+00 1.900000e+00
 1.900000e+00 1.900000e+00 1.900000e+00 1.900000e+00 1.900000e+00 1.900000e+00 1.900000e+00 1.900000e+00 1.900000e+00 1.900000e+00
 1.900000e+00 1.900000e+00 1.900000e+00 1.900000e+00 1.900000e+00 1.900000e+00 1.900000e+00 1.900000e+00 1.900000e+00 1.900000e+00
 1.900000e+00 1.900000e+00 1.900000e+00 1.900000e+00 1.900000e+00 1.900000e+00 1.900000e+00 1.900000e+00 1.900000e+00 1.900000e+00
 1.900000e+00 1.900000e+00 1.900000e+00 1.900000e+00 1.900000e+00 1.900000e+00 1.900000e+00 1.900000e+00 1.900000e+00 1.900000e+00
 1.900000e+00 1.900000e+00 1.900000e+00 1.900000e+00 1.900000e+00 1.900000e+00 1.900000e+00 1.900000e+00 1.900000e+00 1.900000e+00
 1.900000e+00 1.900000e+00 1.900000e+00 1.900000e+00 1.900000e+00 1.900000e+00 1.900000e+00 1.900000e+00 1.900000e+00 1.900000e+00
 1.900000e+00 1.900000e+00 1.900000e+00 1.900000e+00 1.900000e+00 1.900000e+00 1.900000e+00 1.900000e+00 1.900000e+00 1.900000e+00
 1.900000e+00 1.900000e+00 1.900000e+00 1.900000e+00 1.900000e+00 1.900000e+00 1.900000e+00 1.900000e+00 1.900000e+00 1.900000e+00
 1.900000e+00 1.900000e+00 1.900000e+00 1.900000e+00 1.900000e+00 1.900000e+00 1.900000e+00 1.900000e+00 1.900000e+00 1.900000e+00
 1.900000e+00 1.900000e+00 1.900000e+00 1.900000e+00 1.900000e+00 1.900000e+00 1.900000e+00 1.900000e+00 1.900000e+00 1.900000e+00
 1.900000e+00 1.900000e+00 1.900000e+00 1.900000e+00 1.900000e+00 1.900000e+00 1.900000e+00 1.900000e+00 1.900000e+00 1.900000e+00
 1.900000e+00 1.900000e+00 1.900000e+00 1.900000e+00 1.900000e+00 1.900000e+00 1.900000e+00 1.900000e+00 1.900000e+00 1.900000e+00
 1.900000e+00 1.900000e+00 1.900000e+00 1.900000e+00 1.900000e+00 1.900000e+00 1.900000e+00 1.900000e+00 1.900000e+00 1.900000e+00
 1.900000e+00 1.900000e+00 1.900000e+00 1.900000e+00 1.900000e+00 1.900000e+00 1.900000e+00 1.900000e+00 1.900000e+00 1.900000e+00
 1.900000e+00 1.900000e+00 1.900000e+00 1.900000e+00 1.900000e+00 1.900000e+00 1.900000e+00 1.900000e+00 1.900000e+00 1.900000e+00
 1.900000e+00 1.900000e+00 1.900000e+00 1.900000e+00 1.900000e+00 1.900000e+00 1.900000e+00 1.900000e+00 1.900000e+00 1.900000e+00
 1.900000e+00 1.900000e+00 1.900000e+00 1.900000e+00 1.900000e+00 1.900000e+00 1.900000e+00 1.900000e+00 1.900000e+00 1.900000e+00
 1.900000e+00 1.900000e+00 1.900000e+00 1.900000e+00 1.900000e+00 1.900000e+00 1.900000e+00 1.900000e+00 1.900000e+00 1.900000e+00
 1.900000e+00 1.900000e+00 1.900000e+00 1.900000e+00 1.900000e+00 1.900000e+00 1.900000e+00 1.900000e+00 1.900000e+00 1.900000e+00
 1.900000e+00 1.900000e+00 1.900000e+00 1.900000e+00 1.900000e+00 1.900000e+00 1.900000e+00 1.900000e+00 1.900000e+00 1.900000e+00
 1.900000e+00 1.900000e+00 1.900000e+00 1.900000e+00 1.900000e+00 1.900000e+00 1.900000e+00 1.900000e+00 1.900000e+00 1.900000e+00
 1.900000e+00 1.900000e+00 1.900000e+00 1.900000e+00 1.900000e+00 1.900000e+00 1.900000e+00 1.900000e+00 1.900000e+00 1.900000e+00
 1.900000e+00 1.900000e+00 1.900000e+00 1.900000e+00 1.900000e+00 1.900000e+00 1.900000e+00 1.900000e+00 1.900000e+00 1.900000e+00
 1.900000e+00 1.900000e+00 1.900000e+00 1.900000e+00 1.900000e+00 1.900000e+00 1.900000e+00 1.900000e+00 1.900000e+00 1.900000e+00
 1.900000e+00 1.900000e+00 1.900000e+00 1.900000e+00 1.900000e+00 1.900000e+00 1.900000e+00 1.900000e+00 1.900000e+00 1.900000e+00
 1.900000e+00 1.900000e+00 1.900000e+00 1.900000e+00 1.900000e+00 1.900000e+00 1.900000e+00 1.900000e+00 1.900000e+00 1.900000e+00
 1.900000e+00 1.900000e+00 1.900000e+00 1.900000e+00 1.900000e+00 1.900000e+00 1.900000e+00 1.900000e+00 1.900000e+00 1.900000e+00
 1.900000e+00 1.900000e+00 1.900000e+00 1.900000e+00 1.900000e+00 1.900000e+00 1.900000e+00 1.900000e+00 1.900000e+00 1.900000e+00
 1.900000e+00 1.900000e+00 1.900000e+00 1.900000e+00 1.900000e+00 1.900000e+00 1.900000e+00 1.900000e+00 1.900000e+00 1.900000e+00
 1.900000e+00 1.900000e+00 1.900000e+00 1.900000e+00 1.900000e+00 1.900000e+00 1.900000e+00 1.900000e+00 1.900000e+00 1.900000e+00
 1.900000e+00 1.900000e+00 1.900000e+00 1.900000e+00 1.900000e+00 1.900000e+00 1.900000e+00 1.900000e+00 1.900000e+00 1.900000e+00
 1.900000e+00 1.900000e+00 1.900000e+00 1.900000e+00 1.900000e+00 1.900000e+00 1.900000e+00 1.900000e+00 1.900000e+00 1.900000e+00
 1.900000e+00 1.900000e+00 1.900000e+00 1.900000e+00 1.900000e+00 1.900000e+00 1.900000e+00 1.900000e+00 1.900000e+00 1.900000e+00
 1.900000e+00 1.900000e+00 1.900000e+00 1.900000e+00 1.900000e+00 1.900000e+00 1.900000e+00 1.900000e+00 1.900000e+00 1.900000e+00
 1.900000e+00 1.900000e+00 1.900000e+00 1.900000e+00 1.900000e+00 1.900000e+00 1.900000e+00 1.900000e+00 1.900000e+00 1.900000e+00
 1.900000e+00 1.900000e+00 1.900000e+00 1.900000e+00 1.900000e+00 1.900000e+00 1.900000e+00 1.900000e+00 1.900000e+00 1.900000e+00
 1.900000e+00 1.900000e+00 1.900000e+00 1.900000e+00 1.900000e+00 1.900000e+00 1.900000e+00 1.900000e+00 1.900000e+00 1.900000e+00
 1.900000e+00 1.900000e+00 1.900000e+00 1.900000e+00 1.900000e+00 1.900000e+00 1.900000e+00 1.900000e+00 1.900000e+00 1.900000e+00
 1.900000e+00 1.900000e+00 1.900000e+00 1.900000e+00 1.900000e+00 1.900000e+00 1.900000e+00 1.900000e+00 1.900000e+00 1.900000e+00
 1.900000e+00 1.900000e+00 1.900000e+00 1.900000e+00 1.900000e+00 1.900000e+00 1.900000e+00 1.900000e+00 1.900000e+00 1.900000e+00
 1.900000e+00 1.900000e+00 1.900000e+00 1.900000e+00 1.900000e+00 1.900000e+00 1.900000e+00 1.900000e+00 1.900000e+00 1.900000e+00
 1.900000e+00 1.900000e+00 1.900000e+00 1.900000e+00 1.900000e+00 1.900000e+00 1.900000e+00 1.900000e+00 1.900000e+00 1.900000e+00
 1.900000e+00 1.900000e+00 1.900000e+00 1.900000e+00 1.900000e+00 1.900000e+00 1.900000e+00 1.900000e+00 1.900000e+00 1.900000e+00
 1.900000e+00 1.900000e+00 1.900000e+00 1.900000e+00 1.900000e+00 1.900000e+00 1.900000e+00 1.900000e+00 1.900000e+00 1.900000e+00
 1.900000e+00 1.900000e+00 1.900000e+00 1.900000e+00 1.900000e+00 1.900000e+00 1.900000e+00 1.900000e+00 1.900000e+00 1.900000e+00
 1.900000e+00 1.900000e+00 1.900000e+00 1.900000e+00 1.900000e+00 1.900000e+00 1.900000e+00 1.900000e+00 1.900000e+00 1.900000e+00
 1.900000e+00 1.900000e+00 1.900000e+00 1.900000e+00 1.900000e+00 1.900000e+00 1.900000e+00 1.900000e+00 1.900000e+00 1.900000e+00
 1.900000e+00 1.900000e+00 1.900000e+00 1.900000e+00 1.900000e+00 1.900000e+00 1.900000e+00 1.900000e+00 1.900000e+00 1.900000e+00
 1.900000e+00 1.900000e+00 1.900000e+00 1.900000e+00 1.900000e+00 1.900000e+00 1.900000e+00 1.900000e+00 1.900000e+00 1.900000e+00
 1.900000e+00 1.900000e+00 1.900000e+00 1.900000e+00 1.900000e+00 1.900000e+00 1.900000e+00 1.900000e+00 1.900000e+00 1.900000e+00
 1.900000e+00 1.900000e+00 1.900000e+00 1.900000e+00 1.900000e+00 1.900000e+00 1.900000e+00 1.900000e+00 1.900000e+00 1.900000e+00
 1.900000e+00 1.900000e+00 1.900000e+00 1.900000e+00 1.900000e+00 1.900000e+00 1.900000e+00 1.900000e+00 1.900000e+00 1.900000e+00
 1.900000e+00 1.900000e+00 1.900000e+00 1.900000e+00 1.900000e+00 1.900000e+00 1.900000e+00 1.900000e+00 1.900000e+00 1.900000e+00
 1.900000e+00 1.900000e+00 1.900000e+00 1.900000e+00 1.900000e+00 1.900000e+00 1.900000e+00 1.900000e+00 1.900000e+00 1.900000e+00
 1.900000e+00 1.900000e+00 1.900000e+00 1.900000e+00 1.900000e+00 1.900000e+00 1.900000e+00 1.900000e+00 1.900000e+00 1.900000e+00
 1.900000e+00 1.900000e+00 1.900000e+00 1.900000e+00 1.900000e+00 1.900000e+00 1.900000e+00 1.900000e+00 1.900000e+00 1.900000e+00
 1.900000e+00 1.900000e+00 1.900000e+00 1.900000e+00 1.900000e+00 1.900000e+00 1.900000e+00 1.900000e+00 1.900000e+00 1.900000e+00
 1.900000e+00 1.900000e+00 1.900000e+00 1.900000e+00 1.900000e+00 1.900000e+00 1.900000e+00 1.900000e+00 1.900000e+00 1.900000e+00
 1.900000e+00 1.900000e+00 1.900000e+00 1.900000e+00 1.900000e+00 1.900000e+00 1.900000e+00 1.900000e+00 1.900000e+00 1.900000e+00
 1.900000e+00 1.900000e+00 1.900000e+00 1.900000e+00 1.900000e+00 1.900000e+00 1.900000e+00 1.900000e+00 1.900000e+00 1.900000e+00
 1.900000e+00 1.900000e+00 1.900000e+00 1.900000e+00 1.900000e+00 1.900000e+00 1.900000e+00 1.900000e+00 1.900000e+00 1.900000e+00
 1.900000e+00 1.900000e+00 1.900000e+00 1.900000e+00 1.900000e+00 1.900000e+00 1.900000e+00 1.900000e+00 1.900000e+00 1.900000e+00
 1.900000e+00 1.900000e+00 1.900000e+00 1.900000e+00 1.900000e+00 1.900000e+00 1.900000e+00 1.900000e+00 1.900000e+00 1.900000e+00
 1.900000e+00 1.900000e+00 1.900000e+00 1.900000e+00 1.900000e+00 1.900000e+00 1.900000e+00 1.900000e+00 1.900000e+00 1.900000e+00
 1.900000e+00 1.900000e+00 1.900000e+00 1.900000e+00 1.900000e+00 1.900000e+00 1.900000e+00 1.900000e+00 1.900000e+00 1.900000e+00
 1.900000e+00 1.900000e+00 1.900000e+00 1.900000e+00 1.900000e+00 1.900000e+00 1.900000e+00 1.900000e+00 1.900000e+00 1.900000e+00
 1.900000e+00 1.900000e+00 1.900000e+00 1.900000e+00 1.900000e+00 1.900000e+00 1.900000e+00 1.900000e+00 1.900000e+00 1.900000e+00
 1.900000e+00 1.900000e+00 1.900000e+00 1.900000e+00 1.900000e+00 1.900000e+00 1.900000e+00 1.900000e+00 1.900000e+00 1.900000e+00
 1.900000e+00 1.900000e+00 1.900000e+00 1.900000e+00 1.900000e+00 1.900000e+00 1.900000e+00 1.900000e+00 1.900000e+00 1.900000e+00
 1.900000e+00 1.900000e+00 1.900000e+00 1.900000e+00 1.900000e+00 1.900000e+00 1.900000e+00 1.900000e+00 1.900000e+00 1.900000e+00
 1.900000e+00 1.900000e+00 1.900000e+00 1.900000e+00 1.900000e+00 1.900000e+00 1.900000e+00 1.900000e+00 1.900000e+00 1.900000e+00
 1.900000e+00 1.900000e+00 1.900000e+00 1.900000e+00 1.900000e+00 1.900000e+00 1.900000e+00 1.900000e+00 1.900000e+00 1.900000e+00
 1.900000e+00 1.900000e+00 1.900000e+00 1.900000e+00 1.900000e+00 1.900000e+00 1.900000e+00 1.900000e+00 1.900000e+00 1.900000e+00
 1.900000e+00 1.900000e+00 1.900000e+00 1.900000e+00 1.900000e+00 1.900000e+00 1.900000e+00 1.900000e+00 1.900000e+00 1.900000e+00
 1.900000e+00 1.900000e+00 1.900000e+00 1.900000e+00 1.900000e+00 1.900000e+00 1.900000e+00 1.900000e+00 1.900000e+00 1.900000e+00