# MODFLOW-USGs Recharge Package
 4 0
 1 
INTERNAL  1.000000e+00  (FREE)   -1   Recharge()
 5.560000e-06 5.560000e-06 5.560000e-06 5.560000e-06 5.560000e-06 5.560000e-06 5.560000e-06 5.560000e-06 5.560000e-06 5.560000e-06
 5.560000e-06 5.560000e-06 5.560000e-06 5.560000e-06 5.560000e-06 5.560000e-06 5.560000e-06 5.560000e-06 5.560000e-06 5.560000e-06
 5.560000e-06 5.560000e-06 5.560000e-06 5.560000e-06 5.560000e-06 5.560000e-06 5.560000e-06 5.560000e-06 5.560000e-06 5.560000e-06
 5.560000e-06 5.560000e-06 5.560000e-06 5.560000e-06 5.560000e-06 5.560000e-06 5.560000e-06 5.560000e-06 5.560000e-06 5.560000e-06
 5.560000e-06 5.560000e-06 5.560000e-06 5.560000e-06 5.560000e-06 5.560000e-06 5.560000e-06 5.560000e-06 5.560000e-06 5.560000e-06
 5.560000e-06 5.560000e-06 5.560000e-06 5.560000e-06 5.560000e-06 5.560000e-06 5.560000e-06 5.560000e-06 5.560000e-06 5.560000e-06
 5.560000e-06 5.560000e-06 5.560000e-06 5.560000e-06 5.560000e-06 5.560000e-06 5.560000e-06 5.560000e-06 5.560000e-06 5.560000e-06
 5.560000e-06 5.560000e-06 5.560000e-06 5.560000e-06 5.560000e-06 5.560000e-06 5.560000e-06 5.560000e-06 5.560000e-06 5.560000e-06
 5.560000e-06 5.560000e-06 5.560000e-06 5.560000e-06 5.560000e-06 5.560000e-06 5.560000e-06 5.560000e-06 5.560000e-06 5.560000e-06
 5.560000e-06 5.560000e-06 5.560000e-06 5.560000e-06 5.560000e-06 5.560000e-06 5.560000e-06 5.560000e-06 5.560000e-06 5.560000e-06
 5.560000e-06 5.560000e-06 5.560000e-06 5.560000e-06 5.560000e-06 5.560000e-06 5.560000e-06 5.560000e-06 5.560000e-06 5.560000e-06
 5.560000e-06 5.560000e-06 5.560000e-06 5.560000e-06 5.560000e-06 5.560000e-06 5.560000e-06 5.560000e-06 5.560000e-06 5.560000e-06
 5.560000e-06 5.560000e-06 5.560000e-06 5.560000e-06 5.560000e-06 5.560000e-06 5.560000e-06 5.560000e-06 5.560000e-06 5.560000e-06
 5.560000e-06 5.560000e-06 5.560000e-06 5.560000e-06 5.560000e-06 5.560000e-06 5.560000e-06 5.560000e-06 5.560000e-06 5.560000e-06
 5.560000e-06 5.560000e-06 5.560000e-06 5.560000e-06 5.560000e-06 5.560000e-06 5.560000e-06 5.560000e-06 5.560000e-06 5.560000e-06
 5.560000e-06 5.560000e-06 5.560000e-06 5.560000e-06 5.560000e-06 5.560000e-06 5.560000e-06 5.560000e-06 5.560000e-06 5.560000e-06
 5.560000e-06 5.560000e-06 5.560000e-06 5.560000e-06 5.560000e-06 5.560000e-06 5.560000e-06 5.560000e-06 5.560000e-06 5.560000e-06
 5.560000e-06 5.560000e-06 5.560000e-06 5.560000e-06 5.560000e-06 5.560000e-06 5.560000e-06 5.560000e-06 5.560000e-06 5.560000e-06
 5.560000e-06 5.560000e-06 5.560000e-06 5.560000e-06 5.560000e-06 5.560000e-06 5.560000e-06 5.560000e-06 5.560000e-06 5.560000e-06
 5.560000e-06 5.560000e-06 5.560000e-06 5.560000e-06 5.560000e-06 5.560000e-06 5.560000e-06 5.560000e-06 5.560000e-06 5.560000e-06
 5.560000e-06 5.560000e-06 5.560000e-06 5.560000e-06 5.560000e-06 5.560000e-06 5.560000e-06 5.560000e-06 5.560000e-06 5.560000e-06
 5.560000e-06 5.560000e-06 5.560000e-06 5.560000e-06 5.560000e-06 5.560000e-06 5.560000e-06 5.560000e-06 5.560000e-06 5.560000e-06
 5.560000e-06 5.560000e-06 5.560000e-06 5.560000e-06 5.560000e-06 5.560000e-06 5.560000e-06 5.560000e-06 5.560000e-06 5.560000e-06
 5.560000e-06 5.560000e-06 5.560000e-06 5.560000e-06 5.560000e-06 5.560000e-06 5.560000e-06 5.560000e-06 5.560000e-06 5.560000e-06
 5.560000e-06 5.560000e-06 5.560000e-06 5.560000e-06 5.560000e-06 5.560000e-06 5.560000e-06 5.560000e-06 5.560000e-06 5.560000e-06
 5.560000e-06 5.560000e-06 5.560000e-06 5.560000e-06 5.560000e-06 5.560000e-06 5.560000e-06 5.560000e-06 5.560000e-06 5.560000e-06
 5.560000e-06 5.560000e-06 5.560000e-06 5.560000e-06 5.560000e-06 5.560000e-06 5.560000e-06 5.560000e-06 5.560000e-06 5.560000e-06
 5.560000e-06 5.560000e-06 5.560000e-06 5.560000e-06 5.560000e-06 5.560000e-06 5.560000e-06 5.560000e-06 5.560000e-06 5.560000e-06
 5.560000e-06 5.560000e-06 5.560000e-06 5.560000e-06 5.560000e-06 5.560000e-06 5.560000e-06 5.560000e-06 5.560000e-06 5.560000e-06
 5.560000e-06 5.560000e-06 5.560000e-06 5.560000e-06 5.560000e-06 5.560000e-06 5.560000e-06 5.560000e-06 5.560000e-06 5.560000e-06
 5.560000e-06 5.560000e-06 5.560000e-06 5.560000e-06 5.560000e-06 5.560000e-06 5.560000e-06 5.560000e-06 5.560000e-06 5.560000e-06
 5.560000e-06 5.560000e-06 5.560000e-06 5.560000e-06 5.560000e-06 5.560000e-06 5.560000e-06 5.560000e-06 5.560000e-06 5.560000e-06
 5.560000e-06 5.560000e-06 5.560000e-06 5.560000e-06 5.560000e-06 5.560000e-06 5.560000e-06 5.560000e-06 5.560000e-06 5.560000e-06
 5.560000e-06 5.560000e-06 5.560000e-06 5.560000e-06 5.560000e-06 5.560000e-06 5.560000e-06 5.560000e-06 5.560000e-06 5.560000e-06
 5.560000e-06 5.560000e-06 5.560000e-06 5.560000e-06 5.560000e-06 5.560000e-06 5.560000e-06 5.560000e-06 5.560000e-06 5.560000e-06
 5.560000e-06 5.560000e-06 5.560000e-06 5.560000e-06 5.560000e-06 5.560000e-06 5.560000e-06 5.560000e-06 5.560000e-06 5.560000e-06
 5.560000e-06 5.560000e-06 5.560000e-06 5.560000e-06 5.560000e-06 5.560000e-06 5.560000e-06 5.560000e-06 5.560000e-06 5.560000e-06
 5.560000e-06 5.560000e-06 5.560000e-06 5.560000e-06 5.560000e-06 5.560000e-06 5.560000e-06 5.560000e-06 5.560000e-06 5.560000e-06
 5.560000e-06 5.560000e-06 5.560000e-06 5.560000e-06 5.560000e-06 5.560000e-06 5.560000e-06 5.560000e-06 5.560000e-06 5.560000e-06
 5.560000e-06 5.560000e-06 5.560000e-06 5.560000e-06 5.560000e-06 5.560000e-06 5.560000e-06 5.560000e-06 5.560000e-06 5.560000e-06
 5.560000e-06 5.560000e-06 5.560000e-06 5.560000e-06 5.560000e-06 5.560000e-06 5.560000e-06 5.560000e-06 5.560000e-06 5.560000e-06
 5.560000e-06 5.560000e-06 5.560000e-06 5.560000e-06 5.560000e-06 5.560000e-06 5.560000e-06 5.560000e-06 5.560000e-06 5.560000e-06
 5.560000e-06 5.560000e-06 5.560000e-06 5.560000e-06 5.560000e-06 5.560000e-06 5.560000e-06 5.560000e-06 5.560000e-06 5.560000e-06
 5.560000e-06 5.560000e-06 5.560000e-06 5.560000e-06 5.560000e-06 5.560000e-06 5.560000e-06 5.560000e-06 5.560000e-06 5.560000e-06
 5.560000e-06 5.560000e-06 5.560000e-06 5.560000e-06 5.560000e-06 5.560000e-06 5.560000e-06 5.560000e-06 5.560000e-06 5.560000e-06
 5.560000e-06 5.560000e-06 5.560000e-06 5.560000e-06 5.560000e-06 5.560000e-06 5.560000e-06 5.560000e-06 5.560000e-06 5.560000e-06
 5.560000e-06 5.560000e-06 5.560000e-06 5.560000e-06 5.560000e-06 5.560000e-06 5.560000e-06 5.560000e-06 5.560000e-06 5.560000e-06
 5.560000e-06 5.560000e-06 5.560000e-06 5.560000e-06 5.560000e-06 5.560000e-06 5.560000e-06 5.560000e-06 5.560000e-06 5.560000e-06
 5.560000e-06 5.560000e-06 5.560000e-06 5.560000e-06 5.560000e-06 5.560000e-06 5.560000e-06 5.560000e-06 5.560000e-06 5.560000e-06
 5.560000e-06 5.560000e-06 5.560000e-06 5.560000e-06 5.560000e-06 5.560000e-06 5.560000e-06 5.560000e-06 5.560000e-06 5.560000e-06
 5.560000e-06 5.560000e-06 5.560000e-06 5.560000e-06 5.560000e-06 5.560000e-06 5.560000e-06 5.560000e-06 5.560000e-06 5.560000e-06
 5.560000e-06 5.560000e-06 5.560000e-06 5.560000e-06 5.560000e-06 5.560000e-06 5.560000e-06 5.560000e-06 5.560000e-06 5.560000e-06
 5.560000e-06 5.560000e-06 5.560000e-06 5.560000e-06 5.560000e-06 5.560000e-06 5.560000e-06 5.560000e-06 5.560000e-06 5.560000e-06
 5.560000e-06 5.560000e-06 5.560000e-06 5.560000e-06 5.560000e-06 5.560000e-06 5.560000e-06 5.560000e-06 5.560000e-06 5.560000e-06
 5.560000e-06 5.560000e-06 5.560000e-06 5.560000e-06 5.560000e-06 5.560000e-06 5.560000e-06 5.560000e-06 5.560000e-06 5.560000e-06
 5.560000e-06 5.560000e-06 5.560000e-06 5.560000e-06 5.560000e-06 5.560000e-06 5.560000e-06 5.560000e-06 5.560000e-06 5.560000e-06
 5.560000e-06 5.560000e-06 5.560000e-06 5.560000e-06 5.560000e-06 5.560000e-06 5.560000e-06 5.560000e-06 5.560000e-06 5.560000e-06
 5.560000e-06 5.560000e-06 5.560000e-06 5.560000e-06 5.560000e-06 5.560000e-06 5.560000e-06 5.560000e-06 5.560000e-06 5.560000e-06
 5.560000e-06 5.560000e-06 5.560000e-06 5.560000e-06 5.560000e-06 5.560000e-06 5.560000e-06 5.560000e-06 5.560000e-06 5.560000e-06
 5.560000e-06 5.560000e-06 5.560000e-06 5.560000e-06 5.560000e-06 5.560000e-06 5.560000e-06 5.560000e-06 5.560000e-06 5.560000e-06
 5.560000e-06 5.560000e-06 5.560000e-06 5.560000e-06 5.560000e-06 5.560000e-06 5.560000e-06 5.560000e-06 5.560000e-06 5.560000e-06
 5.560000e-06 5.560000e-06 5.560000e-06 5.560000e-06 5.560000e-06 5.560000e-06 5.560000e-06 5.560000e-06 5.560000e-06 5.560000e-06
 5.560000e-06 5.560000e-06 5.560000e-06 5.560000e-06 5.560000e-06 5.560000e-06 5.560000e-06 5.560000e-06 5.560000e-06 5.560000e-06
 5.560000e-06 5.560000e-06 5.560000e-06 5.560000e-06 5.560000e-06 5.560000e-06 5.560000e-06 5.560000e-06 5.560000e-06 5.560000e-06
 5.560000e-06 5.560000e-06 5.560000e-06 5.560000e-06 5.560000e-06 5.560000e-06 5.560000e-06 5.560000e-06 5.560000e-06 5.560000e-06
 5.560000e-06 5.560000e-06 5.560000e-06 5.560000e-06 5.560000e-06 5.560000e-06 5.560000e-06 5.560000e-06 5.560000e-06 5.560000e-06
 5.560000e-06 5.560000e-06 5.560000e-06 5.560000e-06 5.560000e-06 5.560000e-06 5.560000e-06 5.560000e-06 5.560000e-06 5.560000e-06
 5.560000e-06 5.560000e-06 5.560000e-06 5.560000e-06 5.560000e-06 5.560000e-06 5.560000e-06 5.560000e-06 5.560000e-06 5.560000e-06
 5.560000e-06 5.560000e-06 5.560000e-06 5.560000e-06 5.560000e-06 5.560000e-06 5.560000e-06 5.560000e-06 5.560000e-06 5.560000e-06
 5.560000e-06 5.560000e-06 5.560000e-06 5.560000e-06 5.560000e-06 5.560000e-06 5.560000e-06 5.560000e-06 5.560000e-06 5.560000e-06
 5.560000e-06 5.560000e-06 5.560000e-06 5.560000e-06 5.560000e-06 5.560000e-06 5.560000e-06 5.560000e-06 5.560000e-06 5.560000e-06
 5.560000e-06 5.560000e-06 5.560000e-06 5.560000e-06 5.560000e-06 5.560000e-06 5.560000e-06 5.560000e-06 5.560000e-06 5.560000e-06
 5.560000e-06 5.560000e-06 5.560000e-06 5.560000e-06 5.560000e-06 5.560000e-06 5.560000e-06 5.560000e-06 5.560000e-06 5.560000e-06
 5.560000e-06 5.560000e-06 5.560000e-06 5.560000e-06 5.560000e-06 5.560000e-06 5.560000e-06 5.560000e-06 5.560000e-06 5.560000e-06
 5.560000e-06 5.560000e-06 5.560000e-06 5.560000e-06 5.560000e-06 5.560000e-06 5.560000e-06 5.560000e-06 5.560000e-06 5.560000e-06
 5.560000e-06 5.560000e-06 5.560000e-06 5.560000e-06 5.560000e-06 5.560000e-06 5.560000e-06 5.560000e-06 5.560000e-06 5.560000e-06
 5.560000e-06 5.560000e-06 5.560000e-06 5.560000e-06 5.560000e-06 5.560000e-06 5.560000e-06 5.560000e-06 5.560000e-06 5.560000e-06
 5.560000e-06 5.560000e-06 5.560000e-06 5.560000e-06 5.560000e-06 5.560000e-06 5.560000e-06 5.560000e-06 5.560000e-06 5.560000e-06
 5.560000e-06 5.560000e-06 5.560000e-06 5.560000e-06 5.560000e-06 5.560000e-06 5.560000e-06 5.560000e-06 5.560000e-06 5.560000e-06
 5.560000e-06 5.560000e-06 5.560000e-06 5.560000e-06 5.560000e-06 5.560000e-06 5.560000e-06 5.560000e-06 5.560000e-06 5.560000e-06
 5.560000e-06 5.560000e-06 5.560000e-06 5.560000e-06 5.560000e-06 5.560000e-06 5.560000e-06 5.560000e-06 5.560000e-06 5.560000e-06
 5.560000e-06 5.560000e-06 5.560000e-06 5.560000e-06 5.560000e-06 5.560000e-06 5.560000e-06 5.560000e-06 5.560000e-06 5.560000e-06
 5.560000e-06 5.560000e-06 5.560000e-06 5.560000e-06 5.560000e-06 5.560000e-06 5.560000e-06 5.560000e-06 5.560000e-06 5.560000e-06
 5.560000e-06 5.560000e-06 5.560000e-06 5.560000e-06 5.560000e-06 5.560000e-06 5.560000e-06 5.560000e-06 5.560000e-06 5.560000e-06
 5.560000e-06 5.560000e-06 5.560000e-06 5.560000e-06 5.560000e-06 5.560000e-06 5.560000e-06 5.560000e-06 5.560000e-06 5.560000e-06
 5.560000e-06 5.560000e-06 5.560000e-06 5.560000e-06 5.560000e-06 5.560000e-06 5.560000e-06 5.560000e-06 5.560000e-06 5.560000e-06
 5.560000e-06 5.560000e-06 5.560000e-06 5.560000e-06 5.560000e-06 5.560000e-06 5.560000e-06 5.560000e-06 5.560000e-06 5.560000e-06
 5.560000e-06 5.560000e-06 5.560000e-06 5.560000e-06 5.560000e-06 5.560000e-06 5.560000e-06 5.560000e-06 5.560000e-06 5.560000e-06
 5.560000e-06 5.560000e-06 5.560000e-06 5.560000e-06 5.560000e-06 5.560000e-06 5.560000e-06 5.560000e-06 5.560000e-06 5.560000e-06
 5.560000e-06 5.560000e-06 5.560000e-06 5.560000e-06 5.560000e-06 5.560000e-06 5.560000e-06 5.560000e-06 5.560000e-06 5.560000e-06
 5.560000e-06 5.560000e-06 5.560000e-06 5.560000e-06 5.560000e-06 5.560000e-06 5.560000e-06 5.560000e-06 5.560000e-06 5.560000e-06
 5.560000e-06 5.560000e-06 5.560000e-06 5.560000e-06 5.560000e-06 5.560000e-06 5.560000e-06 5.560000e-06 5.560000e-06 5.560000e-06
 5.560000e-06 5.560000e-06 5.560000e-06 5.560000e-06 5.560000e-06 5.560000e-06 5.560000e-06 5.560000e-06 5.560000e-06 5.560000e-06
 5.560000e-06 5.560000e-06 5.560000e-06 5.560000e-06 5.560000e-06 5.560000e-06 5.560000e-06 5.560000e-06 5.560000e-06 5.560000e-06
 5.560000e-06 5.560000e-06 5.560000e-06 5.560000e-06 5.560000e-06 5.560000e-06 5.560000e-06 5.560000e-06 5.560000e-06 5.560000e-06
 5.560000e-06 5.560000e-06 5.560000e-06 5.560000e-06 5.560000e-06 5.560000e-06 5.560000e-06 5.560000e-06 5.560000e-06 5.560000e-06
 5.560000e-06 5.560000e-06 5.560000e-06 5.560000e-06 5.560000e-06 5.560000e-06 5.560000e-06 5.560000e-06 5.560000e-06 5.560000e-06
 5.560000e-06 5.560000e-06 5.560000e-06 5.560000e-06 5.560000e-06 5.560000e-06 5.560000e-06 5.560000e-06 5.560000e-06 5.560000e-06
 5.560000e-06 5.560000e-06 5.560000e-06 5.560000e-06 5.560000e-06 5.560000e-06 5.560000e-06 5.560000e-06 5.560000e-06 5.560000e-06
 5.560000e-06 5.560000e-06 5.560000e-06 5.560000e-06 5.560000e-06 5.560000e-06 5.560000e-06 5.560000e-06 5.560000e-06 5.560000e-06
 5.560000e-06 5.560000e-06 5.560000e-06 5.560000e-06 5.560000e-06 5.560000e-06 5.560000e-06 5.560000e-06 5.560000e-06 5.560000e-06
 5.560000e-06 5.560000e-06 5.560000e-06 5.560000e-06 5.560000e-06 5.560000e-06 5.560000e-06 5.560000e-06 5.560000e-06 5.560000e-06
 5.560000e-06 5.560000e-06 5.560000e-06 5.560000e-06 5.560000e-06 5.560000e-06 5.560000e-06 5.560000e-06 5.560000e-06 5.560000e-06
 5.560000e-06 5.560000e-06 5.560000e-06 5.560000e-06 5.560000e-06 5.560000e-06 5.560000e-06 5.560000e-06 5.560000e-06 5.560000e-06
 5.560000e-06 5.560000e-06 5.560000e-06 5.560000e-06 5.560000e-06 5.560000e-06 5.560000e-06 5.560000e-06 5.560000e-06 5.560000e-06
 5.560000e-06 5.560000e-06 5.560000e-06 5.560000e-06 5.560000e-06 5.560000e-06 5.560000e-06 5.560000e-06 5.560000e-06 5.560000e-06
 5.560000e-06 5.560000e-06 5.560000e-06 5.560000e-06 5.560000e-06 5.560000e-06 5.560000e-06 5.560000e-06 5.560000e-06 5.560000e-06
 5.560000e-06 5.560000e-06 5.560000e-06 5.560000e-06 5.560000e-06 5.560000e-06 5.560000e-06 5.560000e-06 5.560000e-06 5.560000e-06
 5.560000e-06 5.560000e-06 5.560000e-06 5.560000e-06 5.560000e-06 5.560000e-06 5.560000e-06 5.560000e-06 5.560000e-06 5.560000e-06
 5.560000e-06 5.560000e-06 5.560000e-06 5.560000e-06 5.560000e-06 5.560000e-06 5.560000e-06 5.560000e-06 5.560000e-06 5.560000e-06
 5.560000e-06 5.560000e-06 5.560000e-06 5.560000e-06 5.560000e-06 5.560000e-06 5.560000e-06 5.560000e-06 5.560000e-06 5.560000e-06
 5.560000e-06 5.560000e-06 5.560000e-06 5.560000e-06 5.560000e-06 5.560000e-06 5.560000e-06 5.560000e-06 5.560000e-06 5.560000e-06
 5.560000e-06 5.560000e-06 5.560000e-06 5.560000e-06 5.560000e-06 5.560000e-06 5.560000e-06 5.560000e-06 5.560000e-06 5.560000e-06
 5.560000e-06 5.560000e-06 5.560000e-06 5.560000e-06 5.560000e-06 5.560000e-06 5.560000e-06 5.560000e-06 5.560000e-06 5.560000e-06
 5.560000e-06 5.560000e-06 5.560000e-06 5.560000e-06 5.560000e-06 5.560000e-06 5.560000e-06 5.560000e-06 5.560000e-06 5.560000e-06
 5.560000e-06 5.560000e-06 5.560000e-06 5.560000e-06 5.560000e-06 5.560000e-06 5.560000e-06 5.560000e-06 5.560000e-06 5.560000e-06
 5.560000e-06 5.560000e-06 5.560000e-06 5.560000e-06 5.560000e-06 5.560000e-06 5.560000e-06 5.560000e-06 5.560000e-06 5.560000e-06
 5.560000e-06 5.560000e-06 5.560000e-06 5.560000e-06 5.560000e-06 5.560000e-06 5.560000e-06 5.560000e-06 5.560000e-06 5.560000e-06
 5.560000e-06 5.560000e-06 5.560000e-06 5.560000e-06 5.560000e-06 5.560000e-06 5.560000e-06 5.560000e-06 5.560000e-06 5.560000e-06
 5.560000e-06 5.560000e-06 5.560000e-06 5.560000e-06 5.560000e-06 5.560000e-06 5.560000e-06 5.560000e-06 5.560000e-06 5.560000e-06
 5.560000e-06 5.560000e-06 5.560000e-06 5.560000e-06 5.560000e-06 5.560000e-06 5.560000e-06 5.560000e-06 5.560000e-06 5.560000e-06
 5.560000e-06 5.560000e-06 5.560000e-06 5.560000e-06 5.560000e-06 5.560000e-06 5.560000e-06 5.560000e-06 5.560000e-06 5.560000e-06
 5.560000e-06 5.560000e-06 5.560000e-06 5.560000e-06 5.560000e-06 5.560000e-06 5.560000e-06 5.560000e-06 5.560000e-06 5.560000e-06
 5.560000e-06 5.560000e-06 5.560000e-06 5.560000e-06 5.560000e-06 5.560000e-06 5.560000e-06 5.560000e-06 5.560000e-06 5.560000e-06
 5.560000e-06 5.560000e-06 5.560000e-06 5.560000e-06 5.560000e-06 5.560000e-06 5.560000e-06 5.560000e-06 5.560000e-06 5.560000e-06
 5.560000e-06 5.560000e-06 5.560000e-06 5.560000e-06 5.560000e-06 5.560000e-06 5.560000e-06 5.560000e-06 5.560000e-06 5.560000e-06
 5.560000e-06 5.560000e-06 5.560000e-06 5.560000e-06 5.560000e-06 5.560000e-06 5.560000e-06 5.560000e-06 5.560000e-06 5.560000e-06
 5.560000e-06 5.560000e-06 5.560000e-06 5.560000e-06 5.560000e-06 5.560000e-06 5.560000e-06 5.560000e-06 5.560000e-06 5.560000e-06
 5.560000e-06 5.560000e-06 5.560000e-06 5.560000e-06 5.560000e-06 5.560000e-06 5.560000e-06 5.560000e-06 5.560000e-06 5.560000e-06
 5.560000e-06 5.560000e-06 5.560000e-06 5.560000e-06 5.560000e-06 5.560000e-06 5.560000e-06 5.560000e-06 5.560000e-06 5.560000e-06
 5.560000e-06 5.560000e-06 5.560000e-06 5.560000e-06 5.560000e-06 5.560000e-06 5.560000e-06 5.560000e-06 5.560000e-06 5.560000e-06
 5.560000e-06 5.560000e-06 5.560000e-06 5.560000e-06 5.560000e-06 5.560000e-06 5.560000e-06 5.560000e-06 5.560000e-06 5.560000e-06
 5.560000e-06 5.560000e-06 5.560000e-06 5.560000e-06 5.560000e-06 5.560000e-06 5.560000e-06 5.560000e-06 5.560000e-06 5.560000e-06
 5.560000e-06 5.560000e-06 5.560000e-06 5.560000e-06 5.560000e-06 5.560000e-06 5.560000e-06 5.560000e-06 5.560000e-06 5.560000e-06
 5.560000e-06 5.560000e-06 5.560000e-06 5.560000e-06 5.560000e-06 5.560000e-06 5.560000e-06 5.560000e-06 5.560000e-06 5.560000e-06
 5.560000e-06 5.560000e-06 5.560000e-06 5.560000e-06 5.560000e-06 5.560000e-06 5.560000e-06 5.560000e-06 5.560000e-06 5.560000e-06
 5.560000e-06 5.560000e-06 5.560000e-06 5.560000e-06 5.560000e-06 5.560000e-06 5.560000e-06 5.560000e-06 5.560000e-06 5.560000e-06
 5.560000e-06 5.560000e-06 5.560000e-06 5.560000e-06 5.560000e-06 5.560000e-06 5.560000e-06 5.560000e-06 5.560000e-06 5.560000e-06
 5.560000e-06 5.560000e-06 5.560000e-06 5.560000e-06 5.560000e-06 5.560000e-06 5.560000e-06 5.560000e-06 5.560000e-06 5.560000e-06
 5.560000e-06 5.560000e-06 5.560000e-06 5.560000e-06 5.560000e-06 5.560000e-06 5.560000e-06 5.560000e-06 5.560000e-06 5.560000e-06
 5.560000e-06 5.560000e-06 5.560000e-06 5.560000e-06 5.560000e-06 5.560000e-06 5.560000e-06 5.560000e-06 5.560000e-06 5.560000e-06
 5.560000e-06 5.560000e-06 5.560000e-06 5.560000e-06 5.560000e-06 5.560000e-06 5.560000e-06 5.560000e-06 5.560000e-06 5.560000e-06
 5.560000e-06 5.560000e-06 5.560000e-06 5.560000e-06 5.560000e-06 5.560000e-06 5.560000e-06 5.560000e-06 5.560000e-06 5.560000e-06
 5.560000e-06 5.560000e-06 5.560000e-06 5.560000e-06 5.560000e-06 5.560000e-06 5.560000e-06 5.560000e-06 5.560000e-06 5.560000e-06
 5.560000e-06 5.560000e-06 5.560000e-06 5.560000e-06 5.560000e-06 5.560000e-06 5.560000e-06 5.560000e-06 5.560000e-06 5.560000e-06
 5.560000e-06 5.560000e-06 5.560000e-06 5.560000e-06 5.560000e-06 5.560000e-06 5.560000e-06 5.560000e-06 5.560000e-06 5.560000e-06
 5.560000e-06 5.560000e-06 5.560000e-06 5.560000e-06 5.560000e-06 5.560000e-06 5.560000e-06 5.560000e-06 5.560000e-06 5.560000e-06
 5.560000e-06 5.560000e-06 5.560000e-06 5.560000e-06 5.560000e-06 5.560000e-06 5.560000e-06 5.560000e-06 5.560000e-06 5.560000e-06
 5.560000e-06 5.560000e-06 5.560000e-06 5.560000e-06 5.560000e-06 5.560000e-06 5.560000e-06 5.560000e-06 5.560000e-06 5.560000e-06
 5.560000e-06 5.560000e-06 5.560000e-06 5.560000e-06 5.560000e-06 5.560000e-06 5.560000e-06 5.560000e-06 5.560000e-06 5.560000e-06
 5.560000e-06 5.560000e-06 5.560000e-06 5.560000e-06 5.560000e-06 5.560000e-06 5.560000e-06 5.560000e-06 5.560000e-06 5.560000e-06
 5.560000e-06 5.560000e-06 5.560000e-06 5.560000e-06 5.560000e-06 5.560000e-06 5.560000e-06 5.560000e-06 5.560000e-06 5.560000e-06
 5.560000e-06 5.560000e-06 5.560000e-06 5.560000e-06 5.560000e-06 5.560000e-06 5.560000e-06 5.560000e-06 5.560000e-06 5.560000e-06
 5.560000e-06 5.560000e-06 5.560000e-06 5.560000e-06 5.560000e-06 5.560000e-06 5.560000e-06 5.560000e-06 5.560000e-06 5.560000e-06
 5.560000e-06 5.560000e-06 5.560000e-06 5.560000e-06 5.560000e-06 5.560000e-06 5.560000e-06 5.560000e-06 5.560000e-06 5.560000e-06
 5.560000e-06 5.560000e-06 5.560000e-06 5.560000e-06 5.560000e-06 5.560000e-06 5.560000e-06 5.560000e-06 5.560000e-06 5.560000e-06
 5.560000e-06 5.560000e-06 5.560000e-06 5.560000e-06 5.560000e-06 5.560000e-06 5.560000e-06 5.560000e-06 5.560000e-06 5.560000e-06
 5.560000e-06 5.560000e-06 5.560000e-06 5.560000e-06 5.560000e-06 5.560000e-06 5.560000e-06 5.560000e-06 5.560000e-06 5.560000e-06
 5.560000e-06 5.560000e-06 5.560000e-06 5.560000e-06 5.560000e-06 5.560000e-06 5.560000e-06 5.560000e-06 5.560000e-06 5.560000e-06
 5.560000e-06 5.560000e-06 5.560000e-06 5.560000e-06 5.560000e-06 5.560000e-06 5.560000e-06 5.560000e-06 5.560000e-06 5.560000e-06
 5.560000e-06 5.560000e-06 5.560000e-06 5.560000e-06 5.560000e-06 5.560000e-06 5.560000e-06 5.560000e-06 5.560000e-06 5.560000e-06
 5.560000e-06 5.560000e-06 5.560000e-06 5.560000e-06 5.560000e-06 5.560000e-06 5.560000e-06 5.560000e-06 5.560000e-06 5.560000e-06
 5.560000e-06 5.560000e-06 5.560000e-06 5.560000e-06 5.560000e-06 5.560000e-06 5.560000e-06 5.560000e-06 5.560000e-06 5.560000e-06
 5.560000e-06 5.560000e-06 5.560000e-06 5.560000e-06 5.560000e-06 5.560000e-06 5.560000e-06 5.560000e-06 5.560000e-06 5.560000e-06
 5.560000e-06 5.560000e-06 5.560000e-06 5.560000e-06 5.560000e-06 5.560000e-06 5.560000e-06 5.560000e-06 5.560000e-06 5.560000e-06
 5.560000e-06 5.560000e-06 5.560000e-06 5.560000e-06 5.560000e-06 5.560000e-06 5.560000e-06 5.560000e-06 5.560000e-06 5.560000e-06
 5.560000e-06 5.560000e-06 5.560000e-06 5.560000e-06 5.560000e-06 5.560000e-06 5.560000e-06 5.560000e-06 5.560000e-06 5.560000e-06
 5.560000e-06 5.560000e-06 5.560000e-06 5.560000e-06 5.560000e-06 5.560000e-06 5.560000e-06 5.560000e-06 5.560000e-06 5.560000e-06
 5.560000e-06 5.560000e-06 5.560000e-06 5.560000e-06 5.560000e-06 5.560000e-06 5.560000e-06 5.560000e-06 5.560000e-06 5.560000e-06
 5.560000e-06 5.560000e-06 5.560000e-06 5.560000e-06 5.560000e-06 5.560000e-06 5.560000e-06 5.560000e-06 5.560000e-06 5.560000e-06
 5.560000e-06 5.560000e-06 5.560000e-06 5.560000e-06 5.560000e-06 5.560000e-06 5.560000e-06 5.560000e-06 5.560000e-06 5.560000e-06
 5.560000e-06 5.560000e-06 5.560000e-06 5.560000e-06 5.560000e-06 5.560000e-06 5.560000e-06 5.560000e-06 5.560000e-06 5.560000e-06
 5.560000e-06 5.560000e-06 5.560000e-06 5.560000e-06 5.560000e-06 5.560000e-06 5.560000e-06 5.560000e-06 5.560000e-06 5.560000e-06
 5.560000e-06 5.560000e-06 5.560000e-06 5.560000e-06 5.560000e-06 5.560000e-06 5.560000e-06 5.560000e-06 5.560000e-06 5.560000e-06
 5.560000e-06 5.560000e-06 5.560000e-06 5.560000e-06 5.560000e-06 5.560000e-06 5.560000e-06 5.560000e-06 5.560000e-06 5.560000e-06
 5.560000e-06 5.560000e-06 5.560000e-06 5.560000e-06 5.560000e-06 5.560000e-06 5.560000e-06 5.560000e-06 5.560000e-06 5.560000e-06
 5.560000e-06 5.560000e-06 5.560000e-06 5.560000e-06 5.560000e-06 5.560000e-06 5.560000e-06 5.560000e-06 5.560000e-06 5.560000e-06
 5.560000e-06 5.560000e-06 5.560000e-06 5.560000e-06 5.560000e-06 5.560000e-06 5.560000e-06 5.560000e-06 5.560000e-06 5.560000e-06
 5.560000e-06 5.560000e-06 5.560000e-06 5.560000e-06 5.560000e-06 5.560000e-06 5.560000e-06 5.560000e-06 5.560000e-06 5.560000e-06
 5.560000e-06 5.560000e-06 5.560000e-06 5.560000e-06 5.560000e-06 5.560000e-06 5.560000e-06 5.560000e-06 5.560000e-06 5.560000e-06
 5.560000e-06 5.560000e-06 5.560000e-06 5.560000e-06 5.560000e-06 5.560000e-06 5.560000e-06 5.560000e-06 5.560000e-06 5.560000e-06
 5.560000e-06 5.560000e-06 5.560000e-06 5.560000e-06 5.560000e-06 5.560000e-06 5.560000e-06 5.560000e-06 5.560000e-06 5.560000e-06
 5.560000e-06 5.560000e-06 5.560000e-06 5.560000e-06 5.560000e-06 5.560000e-06 5.560000e-06 5.560000e-06 5.560000e-06 5.560000e-06
 5.560000e-06 5.560000e-06 5.560000e-06 5.560000e-06 5.560000e-06 5.560000e-06 5.560000e-06 5.560000e-06 5.560000e-06 5.560000e-06
 5.560000e-06 5.560000e-06 5.560000e-06 5.560000e-06 5.560000e-06 5.560000e-06 5.560000e-06 5.560000e-06 5.560000e-06 5.560000e-06
 5.560000e-06 5.560000e-06 5.560000e-06 5.560000e-06 5.560000e-06 5.560000e-06 5.560000e-06 5.560000e-06 5.560000e-06 5.560000e-06
 5.560000e-06 5.560000e-06 5.560000e-06 5.560000e-06 5.560000e-06 5.560000e-06 5.560000e-06 5.560000e-06 5.560000e-06 5.560000e-06
 5.560000e-06 5.560000e-06 5.560000e-06 5.560000e-06 5.560000e-06 5.560000e-06 5.560000e-06 5.560000e-06 5.560000e-06 5.560000e-06
 5.560000e-06 5.560000e-06 5.560000e-06 5.560000e-06 5.560000e-06 5.560000e-06 5.560000e-06 5.560000e-06 5.560000e-06 5.560000e-06
 5.560000e-06 5.560000e-06 5.560000e-06 5.560000e-06 5.560000e-06 5.560000e-06 5.560000e-06 5.560000e-06 5.560000e-06 5.560000e-06
 5.560000e-06 5.560000e-06 5.560000e-06 5.560000e-06 5.560000e-06 5.560000e-06 5.560000e-06 5.560000e-06 5.560000e-06 5.560000e-06
 5.560000e-06 5.560000e-06 5.560000e-06 5.560000e-06 5.560000e-06 5.560000e-06 5.560000e-06 5.560000e-06 5.560000e-06 5.560000e-06
 5.560000e-06 5.560000e-06 5.560000e-06 5.560000e-06 5.560000e-06 5.560000e-06 5.560000e-06 5.560000e-06 5.560000e-06 5.560000e-06
 5.560000e-06 5.560000e-06 5.560000e-06 5.560000e-06 5.560000e-06 5.560000e-06 5.560000e-06 5.560000e-06 5.560000e-06 5.560000e-06
 5.560000e-06 5.560000e-06 5.560000e-06 5.560000e-06 5.560000e-06 5.560000e-06 5.560000e-06 5.560000e-06 5.560000e-06 5.560000e-06
 5.560000e-06 5.560000e-06 5.560000e-06 5.560000e-06 5.560000e-06 5.560000e-06 5.560000e-06 5.560000e-06 5.560000e-06 5.560000e-06
 5.560000e-06 5.560000e-06 5.560000e-06 5.560000e-06 5.560000e-06 5.560000e-06 5.560000e-06 5.560000e-06 5.560000e-06 5.560000e-06
 5.560000e-06 5.560000e-06 5.560000e-06 5.560000e-06 5.560000e-06 5.560000e-06 5.560000e-06 5.560000e-06 5.560000e-06 5.560000e-06
 5.560000e-06 5.560000e-06 5.560000e-06 5.560000e-06 5.560000e-06 5.560000e-06 5.560000e-06 5.560000e-06 5.560000e-06 5.560000e-06
 5.560000e-06 5.560000e-06 5.560000e-06 5.560000e-06 5.560000e-06 5.560000e-06 5.560000e-06 5.560000e-06 5.560000e-06 5.560000e-06
 5.560000e-06 5.560000e-06 5.560000e-06 5.560000e-06 5.560000e-06 5.560000e-06 5.560000e-06 5.560000e-06 5.560000e-06 5.560000e-06
 5.560000e-06 5.560000e-06 5.560000e-06 5.560000e-06 5.560000e-06 5.560000e-06 5.560000e-06 5.560000e-06 5.560000e-06 5.560000e-06
 5.560000e-06 5.560000e-06 5.560000e-06 5.560000e-06 5.560000e-06 5.560000e-06 5.560000e-06 5.560000e-06 5.560000e-06 5.560000e-06
 5.560000e-06 5.560000e-06 5.560000e-06 5.560000e-06 5.560000e-06 5.560000e-06 5.560000e-06 5.560000e-06 5.560000e-06 5.560000e-06
 5.560000e-06 5.560000e-06 5.560000e-06 5.560000e-06 5.560000e-06 5.560000e-06 5.560000e-06 5.560000e-06 5.560000e-06 5.560000e-06
 5.560000e-06 5.560000e-06 5.560000e-06 5.560000e-06 5.560000e-06 5.560000e-06 5.560000e-06 5.560000e-06 5.560000e-06 5.560000e-06
 5.560000e-06 5.560000e-06 5.560000e-06 5.560000e-06 5.560000e-06 5.560000e-06 5.560000e-06 5.560000e-06 5.560000e-06 5.560000e-06
 5.560000e-06 5.560000e-06 5.560000e-06 5.560000e-06 5.560000e-06 5.560000e-06 5.560000e-06 5.560000e-06 5.560000e-06 5.560000e-06
 5.560000e-06 5.560000e-06 5.560000e-06 5.560000e-06 5.560000e-06 5.560000e-06 5.560000e-06 5.560000e-06 5.560000e-06 5.560000e-06
 5.560000e-06 5.560000e-06 5.560000e-06 5.560000e-06 5.560000e-06 5.560000e-06 5.560000e-06 5.560000e-06 5.560000e-06 5.560000e-06
 5.560000e-06 5.560000e-06 5.560000e-06 5.560000e-06 5.560000e-06 5.560000e-06 5.560000e-06 5.560000e-06 5.560000e-06 5.560000e-06
 5.560000e-06 5.560000e-06 5.560000e-06 5.560000e-06 5.560000e-06 5.560000e-06 5.560000e-06 5.560000e-06 5.560000e-06 5.560000e-06
 5.560000e-06 5.560000e-06 5.560000e-06 5.560000e-06 5.560000e-06 5.560000e-06 5.560000e-06 5.560000e-06 5.560000e-06 5.560000e-06
 5.560000e-06 5.560000e-06 5.560000e-06 5.560000e-06 5.560000e-06 5.560000e-06 5.560000e-06 5.560000e-06 5.560000e-06 5.560000e-06
 5.560000e-06 5.560000e-06 5.560000e-06 5.560000e-06 5.560000e-06 5.560000e-06 5.560000e-06 5.560000e-06 5.560000e-06 5.560000e-06
 5.560000e-06 5.560000e-06 5.560000e-06 5.560000e-06 5.560000e-06 5.560000e-06 5.560000e-06 5.560000e-06 5.560000e-06 5.560000e-06
 5.560000e-06 5.560000e-06 5.560000e-06 5.560000e-06 5.560000e-06 5.560000e-06 5.560000e-06 5.560000e-06 5.560000e-06 5.560000e-06
 5.560000e-06 5.560000e-06 5.560000e-06 5.560000e-06 5.560000e-06 5.560000e-06 5.560000e-06 5.560000e-06 5.560000e-06 5.560000e-06
 5.560000e-06 5.560000e-06 5.560000e-06 5.560000e-06 5.560000e-06 5.560000e-06 5.560000e-06 5.560000e-06 5.560000e-06 5.560000e-06
 5.560000e-06 5.560000e-06 5.560000e-06 5.560000e-06 5.560000e-06 5.560000e-06 5.560000e-06 5.560000e-06 5.560000e-06 5.560000e-06
 5.560000e-06 5.560000e-06 5.560000e-06 5.560000e-06 5.560000e-06 5.560000e-06 5.560000e-06 5.560000e-06 5.560000e-06 5.560000e-06
 5.560000e-06 5.560000e-06 5.560000e-06 5.560000e-06 5.560000e-06 5.560000e-06 5.560000e-06 5.560000e-06 5.560000e-06 5.560000e-06
 5.560000e-06 5.560000e-06 5.560000e-06 5.560000e-06 5.560000e-06 5.560000e-06 5.560000e-06 5.560000e-06 5.560000e-06 5.560000e-06
 5.560000e-06 5.560000e-06 5.560000e-06 5.560000e-06 5.560000e-06 5.560000e-06 5.560000e-06 5.560000e-06 5.560000e-06 5.560000e-06
 5.560000e-06 5.560000e-06 5.560000e-06 5.560000e-06 5.560000e-06 5.560000e-06 5.560000e-06 5.560000e-06 5.560000e-06 5.560000e-06
 5.560000e-06 5.560000e-06 5.560000e-06 5.560000e-06 5.560000e-06 5.560000e-06 5.560000e-06 5.560000e-06 5.560000e-06 5.560000e-06
 5.560000e-06 5.560000e-06 5.560000e-06 5.560000e-06 5.560000e-06 5.560000e-06 5.560000e-06 5.560000e-06 5.560000e-06 5.560000e-06
 5.560000e-06 5.560000e-06 5.560000e-06 5.560000e-06 5.560000e-06 5.560000e-06 5.560000e-06 5.560000e-06 5.560000e-06 5.560000e-06