# MODFLOW-USGs Constant-Head Boundary Package (CHD)
         2
 2
 102   2.05      2.05 
 202   1.010000  1.010000
